             33

Pt       0.037518      -0.118543      -0.147839
N        0.089126       1.881449       0.093967
C        0.078052       3.046252       0.289851
S        0.064795       4.651536       0.553927
As       2.508324      -0.217454      -0.076915
As      -2.438704      -0.020808      -0.164422
C       -3.349312      -1.323319      -1.295650
H       -3.065975      -2.335929      -0.981097
H       -4.436303      -1.187461      -1.203268
H       -3.039300      -1.167472      -2.338354
C       -3.187573       1.680209      -0.753626
H       -4.284952       1.627187      -0.714025
H       -2.825971       2.486641      -0.102259
H       -2.860902       1.873451      -1.784666
C       -3.231424      -0.294847       1.598028
H       -4.327895      -0.257575       1.522708
H       -2.913020      -1.272758       1.984107
H       -2.874853       0.497176       2.271163
C        3.190055      -0.986704       1.581278
H        2.796874      -2.006836       1.688281
H        4.289242      -1.008809       1.556081
H        2.846831      -0.372536       2.425371
C        3.425071       1.497855      -0.207255
H        4.509361       1.337330      -0.123570
H        3.188525       1.954666      -1.177841
H        3.079252       2.158882       0.598346
C        3.354269      -1.292494      -1.467548
H        4.442906      -1.295601      -1.313917
H        2.963944      -2.317352      -1.412259
H        3.116069      -0.860866      -2.449628
S        0.015605      -2.495142      -0.474208
C       -0.519783      -3.033605       1.036984
N       -0.899164      -3.453668       2.060675
