             24

Pt       0.010699      -0.513224      -0.029312
S        1.655476       1.180829      -0.118037
S       -2.082715       0.538232      -0.111107
O        2.503231       1.105742      -1.352352
O       -2.819850       0.285011      -1.388338
C        2.721490       1.012568       1.334881
H        3.094894      -0.018133       1.312047
H        3.536273       1.742158       1.229891
H        2.122487       1.190784       2.238384
C        1.151647       2.909354       0.057754
H        0.611428       3.059529       1.000354
H        2.078404       3.498500       0.032293
H        0.530695       3.152845      -0.812262
C       -3.027442      -0.156884       1.262524
H       -2.588311       0.189030       2.208040
H       -4.067292       0.175944       1.141219
H       -2.911504      -1.242256       1.150894
C       -2.201327       2.308624       0.231392
H       -3.274558       2.540796       0.267342
H       -1.708849       2.549575       1.181527
H       -1.734538       2.826085      -0.614310
Cl       1.842666      -2.052259       0.025612
O       -1.216345      -2.119222      -0.041558
H       -0.615683      -2.864212       0.120445
