             23

Pt      -0.000059       0.000097       0.000119
Cl      -0.624969       2.311129       0.014278
H       -1.900550      -1.670374      -0.029040
N       -2.002961      -0.650230      -0.008409
C       -2.741009      -0.244230      -1.226213
H       -3.762181      -0.659054      -1.211373
H       -2.787612       0.851316      -1.266402
H       -2.208910      -0.611928      -2.113012
C       -2.734380      -0.294648       1.228619
H       -2.780154       0.798351       1.315357
H       -3.756142      -0.707672       1.201915
H       -2.198605      -0.699682       2.096786
Cl       0.625481      -2.311060      -0.013938
H        1.900534       1.670310       0.030060
N        2.002966       0.650169       0.008714
C        2.732911       0.295120      -1.229496
H        3.753929       0.709982      -1.204682
H        2.780296      -0.797892      -1.315435
H        2.194890       0.698537      -2.097001
C        2.742025       0.242957       1.225156
H        3.764373       0.654976       1.208498
H        2.212605       0.612332       2.112852
H        2.786134      -0.852696       1.265865
