             30

Pt      -0.108936      -0.032364      -0.326486
O        1.270293      -1.536808      -0.247152
O        1.328217       1.422826      -0.306098
C        2.444518      -1.382698       0.307059
C        2.497703       1.240019       0.248038
O        3.290978      -2.265586       0.285732
O        3.383707       2.081429       0.183314
C        2.723301      -0.059806       1.032636
H       -0.920859      -2.420738      -0.546652
H       -2.060560      -1.519718      -1.286241
H       -0.951085       2.263070      -1.054297
H       -2.271595       1.310903      -1.076425
N       -1.506256      -1.585692      -0.426193
N       -1.456886       1.558154      -0.506573
H        2.053231      -0.026852       1.910602
H        3.759415      -0.072798       1.388813
C       -2.416900      -1.797698       0.732034
H       -3.030568      -0.892316       0.844350
H       -1.787480      -1.878654       1.629665
C       -1.910859       2.187399       0.765048
H       -1.005735       2.462262       1.324687
H       -2.432923       1.416180       1.349039
C       -2.804548       3.399285       0.536757
H       -3.105998       3.828620       1.504476
H       -2.280235       4.184112      -0.032241
H       -3.720872       3.127567      -0.011994
C       -3.299601      -3.027974       0.566784
H       -3.952705      -3.140578       1.445599
H       -3.943301      -2.944183      -0.323816
H       -2.696968      -3.945805       0.473205
