             25

Pt      -0.050338       0.095838      -0.155738
S       -2.400355       0.204645      -0.527084
C       -3.011092      -0.646313       0.799418
N       -3.492400      -1.267951       1.666439
S        0.081454       2.466179       0.186838
S        0.151253      -2.266010      -0.523544
C       -0.650692       3.232653      -1.294262
H        0.003487       2.983458      -2.139935
H       -1.665239       2.848951      -1.463316
H       -0.665010       4.320628      -1.138888
C       -1.157155       2.898722       1.448267
H       -0.827125       2.437931       2.388011
H       -1.167719       3.992904       1.550914
H       -2.142632       2.515267       1.157020
C       -1.414951      -3.058693      -1.003940
H       -1.198512      -4.127239      -1.146159
H       -2.186384      -2.919396      -0.235363
H       -1.730090      -2.610643      -1.954850
C        0.365907      -2.929381       1.160768
H       -0.495390      -2.663149       1.786469
H        0.476841      -4.020131       1.087464
H        1.284449      -2.483767       1.562207
N        1.957267       0.033331       0.114879
C        3.134888      -0.041748       0.177069
S        4.754161      -0.144772       0.270094
