             29

Pt      -0.045683       0.212601       0.024395
P        1.688510       1.792671       0.038323
P       -1.811097       1.732318      -0.044044
C        2.623764       1.756473      -1.538920
H        3.468796       2.460346      -1.489738
H        2.992731       0.738899      -1.722284
H        1.951778       2.048283      -2.359504
C        1.359301       3.590046       0.261478
H        1.009555       3.787083       1.283434
H        2.310611       4.123424       0.113395
H        0.630155       3.977757      -0.459603
C        2.917450       1.523356       1.375256
H        3.379561       0.534094       1.275066
H        3.688175       2.307731       1.320429
H        2.404072       1.584088       2.346186
C       -1.901919       2.866936       1.397128
H       -1.001136       3.481900       1.491146
H       -2.777632       3.525449       1.291792
H       -2.012226       2.259933       2.307804
C       -1.789085       2.779895      -1.553408
H       -2.619084       3.502296      -1.517578
H       -0.843814       3.323708      -1.666823
H       -1.917920       2.123309      -2.426405
C       -3.527266       1.085796      -0.086982
H       -3.736909       0.502778       0.818636
H       -4.208931       1.949013      -0.140377
H       -3.672302       0.441729      -0.963042
I        1.970885      -1.726553      -0.049748
I       -1.814976      -1.929004       0.041317
