             27

Pt       0.181938      -0.054108      -0.000043
O       -1.296937      -1.467197       0.000042
O       -1.422177       1.226931       0.000162
C       -2.500627      -0.958322       0.000144
C       -2.572381       0.608065       0.000203
O       -3.522116      -1.620469       0.000046
O       -3.651831       1.171642       0.000155
H        2.498906       1.197181      -0.000752
N        1.613690      -1.603283       0.000089
N        1.542651       1.558520      -0.000321
H        0.989220      -2.416514       0.000619
C        2.437358      -1.697112       1.228923
H        1.781536      -1.700520       2.108269
H        3.042023      -2.618374       1.214896
H        3.115668      -0.835337       1.291230
C        2.436928      -1.698132      -1.228916
H        3.044839      -2.617214      -1.212415
H        1.780484      -1.706605      -2.107754
H        3.112052      -0.834105      -1.294472
C        1.386732       2.379749       1.226568
H        2.076121       3.239224       1.202137
H        0.351993       2.740908       1.280462
H        1.599733       1.763900       2.109128
C        1.385719       2.380370      -1.226599
H        0.351187       2.742342      -1.279064
H        2.075801       3.239294      -1.202822
H        1.596990       1.764629      -2.109658
