             25

Pt       0.000000       0.000038      -0.000056
C       -2.736075       0.951807       0.670131
C       -2.736048      -0.951864      -0.670053
C       -4.127605       0.977966       0.697122
H       -2.135092       1.707111       1.175881
C       -4.127592      -0.978123      -0.696963
H       -2.135047      -1.707160      -1.175802
C       -4.839747      -0.000103       0.000096
H       -4.636749       1.762563       1.259170
H       -4.636700      -1.762777      -1.258961
H       -5.932103      -0.000119       0.000121
C        2.736014      -0.951709      -0.670301
C        2.736075       0.951695       0.670290
C        4.127547      -0.978010      -0.697164
H        2.134960      -1.706837      -1.176239
C        4.127606       0.977784       0.697340
H        2.135071       1.706937       1.176118
C        4.839721      -0.000176       0.000142
H        4.636658      -1.762544      -1.259329
H        4.636775       1.762253       1.259543
H        5.932077      -0.000258       0.000222
Cl      -0.000009      -2.308918       0.618805
Cl       0.000062       2.309037      -0.618807
N        2.055546       0.000031      -0.000023
N       -2.055567      -0.000001      -0.000006
