15

Pt       0.139447      -0.000003      -0.000039
Cl       1.755703       1.747201       0.033447
Cl       1.755784      -1.747143      -0.033295
N       -1.433283       1.383956       0.060374
N       -1.433207      -1.383953      -0.060561
C       -2.699956      -0.693724       0.312147
C       -2.700098       0.693606      -0.311812
H       -2.728640       0.622970      -1.408881
H       -3.575853       1.272407       0.018264
H       -3.575768      -1.272596      -0.017630
H       -2.728077      -0.623033       1.409221
H       -1.252997       2.183325      -0.553055
H       -1.495975       1.766253       1.009612
H       -1.253026      -2.183779       0.552306
H       -1.496031      -1.765607      -1.010061
