             50

Pt       0.014853       0.011253      -0.057604
P        2.380123       0.032659      -0.244625
P       -2.349922      -0.026111       0.226917
C        3.077713       1.594777      -0.957129
H        4.173455       1.485425      -1.005604
H        2.721292       1.646611      -1.997252
C        3.263181      -0.177738       1.371997
H        2.870489      -1.106663       1.811886
H        2.884401       0.623265       2.024984
C        3.066828      -1.293182      -1.341189
H        4.164125      -1.187826      -1.356733
H        2.716145      -1.065571      -2.359998
C       -2.900576      -1.612298       1.004914
H       -3.961076      -1.509341       1.288531
H       -2.313795      -1.679097       1.933729
C       -2.885529       1.270861       1.433116
H       -3.947741       1.102720       1.676015
H       -2.301537       1.059092       2.341761
C       -3.448382       0.197154      -1.250576
H       -3.153661      -0.577267      -1.976409
H       -3.161450       1.157176      -1.707846
C        2.653848      -2.710166      -0.935458
H        1.557560      -2.818792      -0.933117
H        3.066582      -3.446310      -1.643139
H        3.020812      -2.975177       0.068703
C        2.682721       2.860307      -0.192066
H        3.102642       3.751223      -0.685073
H        1.588044       2.977840      -0.155570
H        3.054910       2.850197       0.844435
C        4.792879      -0.182394       1.331457
H        5.204764       0.759939       0.938348
H        5.189338      -0.310377       2.351507
H        5.193193      -1.006651       0.721179
C       -4.957751       0.150599      -0.997580
H       -5.499627       0.300196      -1.945003
H       -5.279869      -0.818234      -0.586311
H       -5.287325       0.939203      -0.303992
C       -2.647309       2.706799       0.960206
H       -2.920288       3.419460       1.754466
H       -1.588421       2.873438       0.706062
H       -3.249564       2.957426       0.072600
C       -2.679681      -2.853114       0.136539
H       -1.622258      -2.955988      -0.154776
H       -2.966070      -3.760780       0.691066
H       -3.281349      -2.828346      -0.785883
Cl       0.100079      -0.420983       2.454955
Si      -0.187717       0.372845      -2.363115
H       -0.935668      -0.725155      -3.068699
H       -0.930057       1.635111      -2.707436
H        1.099474       0.484534      -3.129750
