              9

Pt       0.000000       0.000000       0.000000
C        0.000000       2.013892       0.000000
C        2.013892       0.000000       0.000000
C        0.000000      -2.013892       0.000000
C       -2.013892       0.000000       0.000000
N        3.182372       0.000000       0.000000
N        0.000000       3.182372       0.000000
N       -3.182372       0.000000       0.000000
N        0.000000      -3.182372       0.000000
