             21

Pt      -0.000005      -0.000095      -0.000050
Cl       0.066355      -2.369318      -0.327645
Cl      -0.066204       2.369227       0.327893
Se       2.445389       0.282570       0.379534
Se      -2.445546      -0.282756      -0.379381
C        3.001706       0.924113      -1.389320
H        2.501846       1.889799      -1.532279
H        4.092593       1.048526      -1.383910
H        2.686219       0.206701      -2.156508
C        3.281381      -1.485479       0.302184
H        4.363513      -1.333711       0.194325
H        3.060254      -1.982900       1.254923
H        2.861058      -2.060688      -0.529953
C       -3.281052       1.485598      -0.303551
H       -4.363072       1.334371      -0.193841
H       -2.859216       2.062026       0.526976
H       -3.061193       1.981368      -1.257455
C       -3.001729      -0.922631       1.390133
H       -2.685565      -0.204889       2.156729
H       -4.092690      -1.046425       1.385122
H       -2.502449      -1.888543       1.533661
