             25

Pt       0.000192       0.001330      -0.002711
S       -0.198366      -2.396907      -0.000955
S        0.199078       2.399557       0.001470
C       -1.267377      -2.771888       1.424179
H       -0.694474      -2.520402       2.325992
H       -2.188777      -2.178303       1.376714
H       -1.487362      -3.848344       1.408540
C       -1.315904      -2.780332      -1.386041
H       -0.773939      -2.535636      -2.308511
H       -1.535721      -3.856550      -1.355151
H       -2.234866      -2.186155      -1.311212
C        1.273643       2.772144       1.423116
H        1.494396       3.848432       1.408053
H        0.703918       2.519880       2.326791
H        2.194432       2.177882       1.371472
C        1.311865       2.784086      -1.387255
H        0.766198       2.541344      -2.308065
H        1.532930       3.859967      -1.355556
H        2.230459       2.188700      -1.316689
N        1.980491      -0.218371      -0.003691
C        3.130617      -0.492722      -0.007517
S        4.715495      -0.846303      -0.012518
N       -1.980164       0.220728      -0.001227
C       -3.131643       0.489186      -0.005674
S       -4.718187       0.835285      -0.011831
