             30

Pt       1.659078      -0.138125      -0.084418
H        2.868105       1.925081      -1.094730
H        4.063024       0.894283      -0.622627
H        3.281834       0.650230      -2.051554
H        2.023227      -2.698444       0.151237
H        2.778717      -2.265304      -1.246170
H        3.524282      -2.021492       0.201523
N        3.146281       0.938421      -1.077859
N        2.618345      -1.980748      -0.275242
O        0.719415       1.646084       0.196077
O        0.205953      -1.131042       0.939909
C       -0.574841       1.748776       0.347547
C       -1.016202      -0.678520       1.037737
O       -1.100740       2.811463       0.648467
O       -1.816253      -1.165878       1.825503
C       -1.425129       0.479219       0.095719
C       -2.926323       0.772641       0.140077
H       -3.225447       0.909698       1.191921
H       -3.099549       1.739343      -0.357729
C       -3.804844      -0.300581      -0.508708
H       -3.514554      -0.419578      -1.569956
H       -3.614859      -1.272436      -0.023126
C       -5.301311       0.018516      -0.429305
H       -5.489175       1.003038      -0.895983
H       -5.589305       0.131161       0.632038
C       -6.190004      -1.037152      -1.088562
H       -7.258017      -0.778841      -1.004036
H       -5.957007      -1.143577      -2.161650
H       -6.048497      -2.026665      -0.621745
H       -1.138296       0.141098      -0.917775
