             50

Pt       0.093243      -0.302912       0.032068
P        2.449975       0.018073      -0.046966
P       -2.254708      -0.734249       0.132756
C        3.037837       1.600373       0.715934
H        4.138767       1.609482       0.663883
H        2.690801       2.413748       0.059776
C        3.422951      -1.310693       0.801478
H        3.071691      -2.259986       0.370883
H        3.068051      -1.325573       1.843271
C        3.125939       0.085386      -1.770039
H        4.211260       0.266894      -1.704534
H        2.688679       0.981015      -2.238988
C       -2.645680      -2.338629      -0.702500
H       -3.703045      -2.582622      -0.507803
H       -2.032946      -3.084874      -0.174183
C       -2.808080      -0.988687       1.878667
H       -3.833534      -1.393484       1.860044
H       -2.147518      -1.779876       2.264325
C       -3.444206       0.491949      -0.587458
H       -3.177494       0.590244      -1.651298
H       -3.208580       1.465163      -0.128672
C        2.822185      -1.159567      -2.606767
H        1.736872      -1.331999      -2.682664
H        3.218806      -1.039637      -3.627139
H        3.278330      -2.066134      -2.178825
C        2.548136       1.823387       2.149154
H        2.946465       2.771348       2.544020
H        1.449141       1.877019       2.187163
H        2.874564       1.019934       2.828107
C        4.947802      -1.200271       0.737020
H        5.321795      -0.274766       1.201314
H        5.401651      -2.043985       1.281068
H        5.326048      -1.237914      -0.296127
C       -4.932845       0.165967      -0.435236
H       -5.536806       0.953440      -0.913417
H       -5.200738      -0.788221      -0.914279
H       -5.240817       0.112790       0.620248
C       -2.723371       0.262323       2.756417
H       -2.975280       0.011933       3.799019
H       -1.709850       0.693009       2.746352
H       -3.422052       1.047319       2.427488
C       -2.341838      -2.356507      -2.202646
H       -1.287313      -2.105536      -2.399313
H       -2.534099      -3.358370      -2.617902
H       -2.967660      -1.643238      -2.761906
Cl       0.335491      -2.474275       1.267125
Ge      -0.218493       1.800845      -1.084391
H       -1.275551       1.895046      -2.216365
H        1.025453       2.563638      -1.617640
Cl      -1.009505       3.317615       0.405950
