             29

Pt       0.000000       0.000008       0.008144
Cl      -0.192445      -2.395863      -0.004329
Cl       0.192391       2.395863      -0.004322
P       -2.368372       0.068146      -0.000124
P        2.368384      -0.068177      -0.000075
C       -3.076016      -0.732282      -1.490797
H       -2.691122      -1.759981      -1.549785
H       -4.175915      -0.744705      -1.443889
H       -2.753125      -0.180120      -2.385818
C       -3.147697       1.725221       0.050109
H       -4.244010       1.628102       0.024006
H       -2.843392       2.244620       0.969585
H       -2.805253       2.317438      -0.809639
C       -3.108867      -0.832616       1.415200
H       -4.206633      -0.854219       1.333703
H       -2.712238      -1.857331       1.421676
H       -2.820322      -0.333816       2.352239
C        3.147731      -1.725230       0.050211
H        2.805237      -2.317502      -0.809481
H        4.244040      -1.628109       0.024021
H        2.843474      -2.244596       0.969720
C        3.075731       0.732113      -1.491001
H        2.690385       1.759622      -1.550268
H        4.175623       0.745013      -1.444114
H        2.753068       0.179518      -2.385835
C        3.109194       0.832772       1.414956
H        4.206966       0.853956       1.333390
H        2.712942       1.857636       1.421077
H        2.820522       0.334440       2.352203
