             25

O        0.101227       1.531047      -0.488815
O        0.208918      -1.375619      -0.704261
C        1.400772       1.399414      -0.556397
C        1.499989      -1.173042      -0.694949
O        2.106610       2.296034      -1.000508
O        2.272379      -1.989946      -1.180601
C        2.025065       0.105552      -0.003043
C        1.944935      -0.043173       1.567022
C        3.448632      -0.409199       1.578720
C        3.568024       0.115679       0.127307
H        1.229634      -0.784653       1.952184
H        1.736923       0.923480       2.050163
H        3.609574      -1.495574       1.648591
H        4.068439       0.086204       2.341521
H        3.948759       1.143651       0.074173
H        4.101829      -0.517589      -0.593115
Pt      -1.141446      -0.011950      -0.032802
H       -3.285794      -1.601995      -0.181261
H       -1.918758      -2.488722       0.064679
H       -2.653029      -1.737331       1.332735
H       -2.080232       2.354174       0.476388
H       -3.385909       1.435185       0.069861
H       -2.760620       1.350868       1.590571
N       -2.406824      -1.631405       0.344035
N       -2.509687       1.431536       0.600766
