             13

Pt      -0.547191       0.015910      -0.039324
Cl      -0.499113       2.407502       0.053686
Cl      -2.934660       0.051537       0.252146
Cl      -0.548136      -2.390350      -0.185916
Se       1.872428      -0.176107      -0.361936
C        2.689979       1.534561       0.132341
H        2.313497       1.851421       1.111572
H        3.778400       1.388797       0.142025
H        2.397236       2.264581      -0.630357
C        2.424557      -1.176591       1.234932
H        3.515669      -1.296834       1.207503
H        2.104178      -0.632296       2.131758
H        1.914605      -2.144576       1.168400
