             17

Pt       0.540654       0.000036      -0.011343
C       -3.020911       1.667520      -0.969853
H       -4.106878       1.552602      -0.845033
H       -2.671486       2.597085      -0.503426
H       -2.760191       1.668786      -2.037208
C       -2.917709       0.000359       1.949401
H       -4.012729       0.000240       1.854975
H       -2.582090      -0.897873       2.485472
H       -2.582270       0.898774       2.485291
C       -3.020753      -1.667352      -0.969533
H       -2.671772      -2.596737      -0.502404
H       -4.106771      -1.552166      -0.845394
H       -2.759445      -1.669237      -2.036744
Sb      -2.032527       0.000228      -0.020859
Br       0.484930       2.531239       0.048794
Br       0.483714      -2.531138       0.048805
Br       3.131292      -0.000646      -0.045229
