             10

Pt      -0.000004      -0.268550      -0.000079
Br       0.000026       2.287918       0.000364
Br       2.534733      -0.300771      -0.000378
Br      -2.534746      -0.300740      -0.000378
C       -0.000012      -2.338741       0.702119
C       -0.000010      -2.339741      -0.699693
H       -0.929212      -2.500729       1.254198
H        0.929188      -2.500730       1.254199
H       -0.929217      -2.502503      -1.251530
H        0.929197      -2.502503      -1.251528
