             17

Pt       0.000506       0.135578       0.022496
C        1.610054       2.834669       1.476859
H        2.553503       2.281184       1.385035
H        1.807024       3.918010       1.458824
H        1.131187       2.567122       2.430316
C       -0.896388       3.571531       0.332651
H       -0.478502       4.588950       0.386707
H       -1.603066       3.503035      -0.504148
H       -1.431545       3.342373       1.264343
C        1.304035       3.002555      -1.422523
H        1.542452       4.072339      -1.316232
H        2.224922       2.431256      -1.601481
H        0.625640       2.862902      -2.277009
P        0.483256       2.384833       0.098093
I        2.683061      -0.396138      -0.112765
I       -0.477334      -2.633725       0.094667
I       -2.691881       0.532368      -0.109719
