             13

Pt      -0.174139       0.010605      -0.000004
Te       2.286619      -0.942452      -0.000152
C        3.278772       0.146074      -1.593611
H        3.091722       1.217676      -1.453997
H        4.349545      -0.091993      -1.544359
H        2.848174      -0.205589      -2.540091
C        3.278373       0.145042       1.594260
H        4.349092      -0.093278       1.545267
H        3.091601       1.216765       1.455181
H        2.847298      -0.206957       2.540405
I        0.657978       2.597621       0.000052
I       -2.794901       0.841929      -0.000010
I       -0.980843      -2.598097      -0.000005
