             14

Pt      -0.119254       0.003908       0.000021
S        2.099318       0.717114       0.000025
C        2.964679      -0.020612       1.408784
H        4.023190       0.261741       1.324148
H        2.511770       0.427331       2.302790
H        2.814892      -1.107548       1.396288
C        2.963836      -0.020003      -1.409560
H        4.022310       0.262748      -1.325789
H        2.814409      -1.106995      -1.397058
H        2.510015       0.427788      -2.303182
O        2.418354       2.178473       0.000375
Br      -0.921923       2.396897       0.000053
Br      -2.523104      -0.778610      -0.000036
Br       0.647834      -2.421938       0.000051
