             19

Pt      -0.251171      -0.551005      -0.048769
S        1.355445      -2.306044      -0.299407
C        2.476136      -2.004366       0.926973
N        3.294848      -1.828496       1.745413
S       -1.851066      -2.375098       0.242613
C       -3.316366      -1.774802      -0.345692
N       -4.354671      -1.426976      -0.760865
Te       1.401894       1.494798      -0.414293
C        3.245193       0.665640      -1.201623
H        2.996193       0.153201      -2.140450
H        3.926673       1.506326      -1.388716
H        3.669860      -0.034137      -0.470682
C        2.160788       1.792758       1.599584
H        2.917846       2.587960       1.559899
H        1.306502       2.101669       2.217861
H        2.589560       0.846599       1.955997
N       -1.664231       0.877495       0.149048
C       -2.445227       1.747519       0.320756
S       -3.527414       2.941930       0.549178
