             23

Pt       0.107756      -0.197586      -0.003432
P        0.280806       2.108151       0.000316
C        1.983524       2.753550      -0.133806
H        2.435074       2.404368      -1.072813
H        1.961712       3.853897      -0.121689
H        2.587490       2.387263       0.707546
C       -0.407044       2.837457       1.529803
H       -0.331602       3.935314       1.495663
H       -1.461257       2.543371       1.629417
H        0.152847       2.456404       2.395977
C       -0.642688       2.879402      -1.377390
H       -0.544993       3.975042      -1.330196
H       -0.238695       2.514892      -2.332827
H       -1.703685       2.601716      -1.309066
N        2.086937      -0.444398      -0.011255
C        3.260579      -0.573795      -0.003900
S        4.878242      -0.749464       0.006135
S        0.026851      -2.687587      -0.000435
C       -1.595395      -3.137079       0.001375
N       -2.703340      -3.515239       0.002500
N       -1.870460       0.034999       0.009260
C       -3.028605       0.266065       0.005490
S       -4.623104       0.589302      -0.001451
