             14

Pt      -0.196327       0.001257      -0.000164
Cl       0.493839      -2.296030       0.001139
Cl      -2.509572      -0.620885       0.000202
Cl      -0.689515       2.349992      -0.000540
N        1.815588       0.615836      -0.000932
H        1.709041       1.636432      -0.003228
C        2.546783       0.229203      -1.227607
H        3.576374       0.624067      -1.201004
H        2.569127      -0.865677      -1.297779
H        2.021863       0.632537      -2.103471
C        2.545570       0.235325       1.228441
H        2.567607      -0.858986       1.304502
H        3.575237       0.629493       1.200298
H        2.020229       0.643748       2.101386
