             19

Pt       0.044934       0.268718      -0.007547
N        1.976840      -0.203105      -0.017713
N       -1.896417       0.728416      -0.003674
S        0.420284       2.666710      -0.006772
C        3.096574      -0.577688      -0.023627
C       -3.026500       1.073766      -0.004011
C        2.089171       2.903935       0.039919
N        3.232018       3.150876       0.072100
S        4.642518      -1.086016      -0.031987
S       -4.587069       1.532616      -0.005791
Se      -0.445446      -2.176330      -0.008718
C       -1.632371      -2.377540       1.537256
H       -2.034062      -3.399336       1.524755
H       -1.015732      -2.220496       2.431199
H       -2.433519      -1.631191       1.483725
C       -1.795808      -2.364688      -1.414994
H       -1.284128      -2.190775      -2.369982
H       -2.186473      -3.389955      -1.371823
H       -2.590988      -1.626054      -1.262263
