             13

Pt      -0.174008      -0.127065      -0.024926
S       -2.403285      -0.931865      -0.371345
S        0.437965      -2.448441      -0.288940
S       -0.900971       2.161011       0.336609
C       -3.081376      -0.836887       1.173801
C        2.099312      -2.507847      -0.585970
C       -1.812768       2.532977      -1.034946
N       -2.443781       2.855145      -1.967142
N        3.240850      -2.636967      -0.809176
N       -3.604467      -0.799807       2.220490
N        1.717630       0.530248       0.200004
C        2.758067       1.057515       0.379621
S        4.205137       1.769059       0.626174
