             23

Pt       0.371533      -0.000429      -0.125235
As      -2.026816      -0.007764      -0.366217
C       -2.772489       1.498322      -1.351936
H       -3.856252       1.350915      -1.467205
H       -2.581330       2.429368      -0.803201
H       -2.296692       1.552507      -2.341146
C       -2.758234      -1.541552      -1.325830
H       -2.523121      -2.464485      -0.781339
H       -3.848469      -1.418612      -1.402833
H       -2.311694      -1.581447      -2.329014
C       -3.002731      -0.000324       1.324306
H       -2.739488       0.911491       1.877635
H       -4.083213      -0.019688       1.121995
H       -2.710026      -0.888941       1.900355
S        0.507332      -2.422909      -0.155572
C       -0.486090      -2.881336       1.131254
N       -1.180697      -3.232073       2.005980
S        0.507612       2.427258      -0.147717
C       -0.510151       2.901106       1.109197
N       -1.216678       3.290172       1.958669
N        2.431721       0.002806      -0.032235
C        3.612368       0.003154      -0.061078
S        5.242506       0.002900      -0.096971
