             23

Pt      -0.075851      -0.104712      -0.135504
P        0.644810       2.086968      -0.112582
C        2.457432       2.271179       0.043719
H        2.953666       1.759904      -0.792667
H        2.720061       3.340037       0.031226
H        2.797650       1.818920       0.985341
C       -0.048014       3.060411       1.273946
H        0.349297       4.086982       1.249795
H       -1.143134       3.087454       1.191576
H        0.227298       2.581457       2.224680
C        0.212273       3.012891      -1.631336
H        0.572064       4.050718      -1.555404
H        0.679570       2.524260      -2.498619
H       -0.878796       3.008267      -1.760506
N        1.803787      -0.816434       0.090680
C        2.895979      -1.238883       0.244130
S        4.404473      -1.813943       0.453237
S       -0.677391      -2.525948      -0.130135
S       -2.296407       0.693465      -0.513109
C       -2.343316      -2.684768      -0.308705
C       -2.963488       0.637153       1.039294
N       -3.493619      -2.867694      -0.428421
N       -3.480090       0.626974       2.088657
