             19

Pt       0.162078       0.088086      -0.166881
S        2.441830       0.675138      -0.595891
C        2.942001       1.332245       0.880637
N        3.354749       1.795168       1.872249
N       -1.766548      -0.434405       0.104857
C       -2.859914      -0.855507       0.251287
S       -4.371974      -1.424513       0.454621
S        0.673266      -2.241473       0.093305
C        1.583199      -2.737382      -1.404421
H        1.900747      -3.782601      -1.283954
H        0.882863      -2.653736      -2.245238
H        2.448491      -2.079699      -1.558549
C        1.989797      -2.375379       1.343284
H        2.274287      -3.433604       1.428004
H        2.850143      -1.757606       1.056985
H        1.565332      -2.024906       2.292769
S       -0.299293       2.421312      -0.466963
C       -1.919184       2.655790      -0.047877
N       -3.028290       2.904300       0.226905
