             23

Pt       0.009537      -0.184093      -0.139581
P        2.090158       0.804503      -0.220327
C        3.407903      -0.119887      -1.092140
H        4.316184       0.500772      -1.130507
H        3.630697      -1.055793      -0.563431
H        3.078826      -0.352994      -2.114618
C        2.749924       1.123208       1.457120
H        3.719714       1.640902       1.397966
H        2.032993       1.745088       2.012245
H        2.875397       0.164225       1.980714
C        2.066638       2.431465      -1.058661
H        1.393776       3.116711      -0.526962
H        3.083435       2.851911      -1.080470
H        1.701721       2.303012      -2.088112
S        0.851403      -2.415617      -0.377340
N       -1.892632      -1.017431      -0.082374
C       -2.987363      -1.460006      -0.066830
S       -4.497137      -2.076454      -0.046653
C        1.924180      -2.571628       0.916086
N        2.691580      -2.717105       1.787980
N       -0.826975       1.648600       0.039923
C       -1.381430       2.669619       0.250496
S       -2.130013       4.088497       0.527134
