             21

Pt       0.000009       0.000045      -0.023938
S        0.426236       2.359749      -0.031617
S       -0.426277      -2.359722      -0.031744
C        1.579693       2.715196      -1.395918
H        2.483102       2.098468      -1.309431
H        1.046775       2.485324      -2.327710
H        1.821689       3.786735      -1.359062
C        1.470952       2.727438       1.414906
H        2.378091       2.109859       1.403551
H        1.716154       3.798496       1.388345
H        0.867539       2.505220       2.304653
C       -1.470584      -2.727328       1.415063
H       -2.377856      -2.109936       1.403763
H       -1.715572      -3.798441       1.388873
H       -0.867075      -2.504688       2.304643
C       -1.580009      -2.715379      -1.395707
H       -1.047269      -2.485910      -2.327702
H       -1.822165      -3.786872      -1.358465
H       -2.483325      -2.098503      -1.309258
I       -2.638922       0.674349       0.023117
I        2.638914      -0.674410       0.023084
