             23

Pt       0.277691       0.108216      -0.111407
As      -2.096826      -0.191800       0.209571
C       -3.245628       1.352330      -0.105298
H       -4.289649       1.059045       0.076285
H       -2.954073       2.161262       0.578712
H       -3.123899       1.695354      -1.141927
C       -2.891958      -1.579407      -0.908697
H       -2.363136      -2.527271      -0.737356
H       -3.955488      -1.689297      -0.655062
H       -2.786109      -1.285401      -1.963392
C       -2.549005      -0.720695       2.032447
H       -2.191558       0.054397       2.724803
H       -3.638577      -0.830760       2.125094
H       -2.052894      -1.674597       2.258029
S        0.578241      -2.161796       0.700226
C        0.894395      -2.975184      -0.741657
N        1.111997      -3.573828      -1.722822
S        2.687779       0.485763      -0.451646
C        3.505067      -0.411025       0.718804
N        4.130385      -0.990329       1.523343
S       -0.058947       2.320745      -1.027065
C        0.700525       3.329823       0.091420
N        1.200080       4.083496       0.834106
