             37

Pt       0.000007      -1.039882      -0.000003
Cl       1.698317      -2.702167       0.136946
Cl      -1.698392      -2.702087      -0.136950
C       -2.347382       0.675945       0.912773
C       -1.578177       1.134235      -1.243915
C       -3.331199       1.662789       0.757666
C       -2.535774       2.114963      -1.443398
H       -0.859672       0.889961      -2.026149
C       -3.453281       2.404498      -0.420646
H       -4.015970       1.843459       1.588520
H       -2.562914       2.646671      -2.396688
C        2.347458       0.675853      -0.912739
C        1.578285       1.134133       1.243963
C        3.331317       1.662671      -0.757622
C        2.535928       2.114796       1.443467
H        0.859821       0.889805       2.026219
C        3.453393       2.404386       0.420675
H        4.016151       1.843241      -1.588445
H        2.563172       2.646402       2.396812
N       -1.476765       0.427127      -0.097206
N        1.476818       0.427077       0.097212
C       -2.259255      -0.122249       2.180020
H       -2.440563      -1.184969       1.958803
H       -1.253477      -0.062513       2.622898
H       -2.994189       0.233070       2.914354
C       -4.514786       3.454383      -0.596457
H       -5.212453       3.165740      -1.399949
H       -5.095245       3.605570       0.324030
H       -4.068349       4.417597      -0.891182
C        2.259354      -0.122363      -2.179974
H        2.440748      -1.185065      -1.958743
H        1.253561      -0.062714      -2.622825
H        2.994241       0.233001      -2.914334
C        4.514411       3.454794       0.596296
H        5.207153       3.171108       1.405734
H        5.100135       3.600314      -0.321754
H        4.066442       4.419976       0.882312
