             14

Pt      -0.302971       0.005724      -0.068744
Cl      -0.450680       2.398560      -0.062218
Cl      -2.636859      -0.265338       0.366175
Cl       0.058533      -2.359216      -0.145180
N        1.728088       0.270776      -0.468180
H        1.959725      -0.261989      -1.312970
H        1.835545       1.262833      -0.710624
C        2.675094      -0.090535       0.618530
H        2.500654      -1.151495       0.849171
H        2.387239       0.490730       1.507848
C        4.128737       0.167970       0.240768
H        4.309656       1.237199       0.039605
H        4.790961      -0.136670       1.066325
H        4.421449      -0.405237      -0.655035
