             23

Pt      -0.096499       0.006876      -0.008774
N       -2.081036      -0.262380       0.007439
C       -3.221878      -0.571860       0.017114
S       -4.798144      -0.970686       0.028816
S       -0.003186      -2.387930      -0.011964
C        1.619976      -2.849573      -0.009849
N        2.712852      -3.264846      -0.007707
N        1.878553       0.218140      -0.013153
C        3.056606       0.286480       0.008201
S        4.679734       0.408881       0.036626
N       -0.414387       2.178783      -0.005770
C       -1.157708       2.541489       1.228482
H       -1.362786       3.625937       1.234192
H       -2.103683       1.990890       1.266028
H       -0.552912       2.282922       2.106641
C        0.852288       2.950975      -0.040887
H        1.458570       2.713427       0.840561
H        1.419126       2.698796      -0.944443
H        0.619171       4.029047      -0.044095
C       -1.220030       2.535070      -1.202261
H       -2.169887       1.990784      -1.183844
H       -1.417654       3.620730      -1.208073
H       -0.664903       2.263517      -2.108713
