             19

Pt      -0.004111      -0.408979      -0.161941
N       -1.674412       0.703236       0.051387
S       -1.132937      -2.533969       0.034878
C       -2.622321       1.395381       0.185261
C       -2.790990      -2.211707       0.022916
N       -3.952574      -2.072869       0.015500
S       -3.930836       2.346321       0.367962
Se       1.150610       1.801900      -0.364747
C        1.635198       2.171120       1.500754
H        2.199964       3.113636       1.526617
H        0.692869       2.275428       2.052877
H        2.227666       1.336779       1.897231
C        2.959065       1.535160      -1.065583
H        2.857938       1.127650      -2.078889
H        3.440492       2.522031      -1.095984
H        3.517645       0.843126      -0.425789
S        1.953620      -1.752067      -0.456160
C        2.773549      -1.447282       0.989565
N        3.383957      -1.230863       1.963455
