             19

Pt       0.427571       0.291508      -0.085585
S        1.362241      -1.741211       0.841258
C        1.769762      -2.594821      -0.558864
N        2.064952      -3.231835      -1.495604
S       -0.504485       2.323707      -1.011335
C       -1.286048       2.986394       0.328757
N       -1.844921       3.487308       1.227548
S        2.496189       1.577016      -0.038893
C        3.759909       0.557657       0.417178
N        4.684907      -0.089140       0.725696
Te      -1.825430      -1.097695      -0.145926
C       -2.245703      -1.156222       1.982234
H       -2.234231      -0.128973       2.367649
H       -3.226358      -1.628686       2.125738
H       -1.452047      -1.757079       2.442396
C       -3.416241       0.304638      -0.590816
H       -4.364900      -0.232314      -0.459339
H       -3.345516       1.162296       0.089771
H       -3.292903       0.624837      -1.633333
