             23

Pt       0.256951      -0.109403      -0.315875
S       -0.109334      -2.506349      -0.278253
S        2.641080      -0.672660      -0.788394
S        0.985779       2.202340      -0.424876
C       -1.081506      -2.760350       1.074892
C        3.367516      -0.371326       0.700021
C        0.249547       2.945555       0.896468
N       -1.759300      -2.978995       2.004679
N        3.916631      -0.176493       1.715983
N       -0.245132       3.499493       1.802074
P       -1.996769       0.424796      -0.169090
C       -2.462501       1.962783      -1.054127
H       -3.556019       2.084660      -1.016523
H       -1.983931       2.833358      -0.588091
H       -2.137433       1.892621      -2.102023
C       -2.593121       0.655277       1.546860
H       -3.665085       0.907692       1.543859
H       -2.437718      -0.277487       2.107798
H       -2.025422       1.468924       2.020580
C       -3.126647      -0.820077      -0.902502
H       -3.094839      -1.751882      -0.323901
H       -4.153017      -0.422301      -0.893114
H       -2.822683      -1.026599      -1.938446
