             29

Pt       0.000001      -0.000012      -0.010335
As      -2.421751       0.505013      -0.039889
As       2.421751      -0.504993      -0.039868
C       -3.024712       2.362019      -0.120745
H       -4.124156       2.369197      -0.147528
H       -2.665887       2.904705       0.763432
H       -2.622743       2.839458      -1.023960
C       -3.408963      -0.162320       1.509526
H       -4.477646       0.068290       1.389768
H       -3.262180      -1.247365       1.589422
H       -3.021773       0.327007       2.414366
C       -3.371380      -0.281674      -1.556399
H       -3.212905      -1.367861      -1.553501
H       -4.444264      -0.054166      -1.475918
H       -2.969066       0.144391      -2.486295
C        3.409126       0.162431       1.509412
H        4.477827      -0.068007       1.389453
H        3.262180       1.247450       1.589356
H        3.022185      -0.327005       2.414300
C        3.371247       0.281685      -1.556472
H        4.444122       0.054072      -1.476144
H        2.968779      -0.144261      -2.486354
H        3.212876       1.367887      -1.553465
C        3.024739      -2.361987      -0.120731
H        2.622845      -2.839371      -1.024009
H        4.124185      -2.369136      -0.147435
H        2.665851      -2.904732       0.763383
I        0.659169       2.638652       0.061430
I       -0.659181      -2.638674       0.061432
