             19

Pt      -0.181115       0.455624      -0.016089
S       -0.926863       2.785660      -0.014323
C       -2.609093       2.770760       0.071771
N       -3.775572       2.838193       0.132368
Te       0.750056      -2.027564      -0.007464
C        2.326871      -1.895146      -1.485617
H        2.948378      -1.020022      -1.263747
H        2.908774      -2.824511      -1.436378
H        1.843339      -1.793117      -2.465254
C        2.087949      -1.930435       1.693679
H        2.702770      -2.839675       1.691968
H        2.703488      -1.027957       1.602209
H        1.463025      -1.887687       2.594691
N        1.666491       1.205714       0.002442
C        2.763045       1.644673      -0.005973
S        4.277217       2.242116      -0.012042
N       -2.020018      -0.309177      -0.038352
C       -3.089484      -0.809585      -0.040951
S       -4.563964      -1.498842      -0.045704
