             27

Pt       0.065432      -0.044610      -0.238913
O       -1.524884       1.217681       0.031094
O       -1.379798      -1.469130      -0.000443
C       -2.655410       0.591394       0.219977
C       -2.572740      -0.972772       0.191678
O       -3.722050       1.148332       0.407360
O       -3.576601      -1.645418       0.342547
H        1.054904      -2.330770      -0.849165
H        2.211321      -1.252724      -1.212942
H        1.082992       2.060075      -1.330398
H        2.344767       1.247975      -0.715438
N        1.393163       1.555496      -0.492817
N        1.541977      -1.507048      -0.479347
C        1.445083       2.509176       0.652437
H        0.406375       2.789162       0.876299
H        1.830035       1.954585       1.520098
C        2.284909      -1.903483       0.751605
H        2.787041      -1.005458       1.139219
H        1.534822      -2.202905       1.497315
C        2.298812       3.735739       0.360072
H        1.905842       4.303749      -0.498741
H        2.299939       4.405232       1.233902
H        3.344150       3.461002       0.144533
C        3.287463      -3.021893       0.500344
H        4.049371      -2.721790      -0.237080
H        3.806395      -3.273959       1.437811
H        2.790334      -3.934400       0.133804
