             21

Pt       0.000047       0.145084       0.000016
S       -2.391176       0.252462       0.000209
S        2.391311       0.251235      -0.000108
C       -2.954069      -0.761258      -1.405064
H       -2.628980      -0.244531      -2.317431
H       -2.507565      -1.762092      -1.352517
H       -4.051557      -0.807647      -1.372728
C       -2.954311      -0.762081       1.404775
H       -2.629441      -0.245797       2.317469
H       -4.051792      -0.808550       1.372218
H       -2.507733      -1.762859       1.351800
C        2.953528      -0.762854       1.405149
H        2.506565      -1.763481       1.352526
H        4.051001      -0.809828       1.372976
H        2.628611      -0.246003       2.317509
C        2.954088      -0.763524      -1.404647
H        2.629945      -0.246885      -2.317403
H        4.051525      -0.810760      -1.371691
H        2.506799      -1.763999      -1.351966
Br      -0.000673      -2.384601      -0.000093
Br       0.000714       2.675887      -0.000048
