             46

Pt       0.160540      -0.339839       0.103570
P        2.132838       0.569116       1.013955
P       -1.802017      -1.352922      -0.745981
C        3.663315      -0.107647       0.238993
C        4.868541      -0.247518       0.948056
C        3.633060      -0.448330      -1.124631
C        6.018056      -0.718710       0.305347
H        4.924199       0.007460       2.008416
C        4.784815      -0.911117      -1.767233
H        2.696553      -0.359209      -1.681373
C        5.979477      -1.048986      -1.052915
H        6.947143      -0.827362       0.870518
H        4.746262      -1.171019      -2.828085
H        6.878809      -1.416667      -1.553431
C       -3.337990      -0.799647       0.103717
C       -3.311023      -0.674106       1.504029
C       -4.535458      -0.537656      -0.580811
C       -4.460881      -0.305087       2.206198
H       -2.377774      -0.853921       2.044966
C       -5.683880      -0.159778       0.123832
H       -4.585570      -0.618783      -1.668212
C       -5.650502      -0.045494       1.516574
H       -4.425333      -0.211422       3.294518
H       -6.607956       0.047476      -0.421737
H       -6.548781       0.250618       2.064200
C       -2.065205      -1.079913      -2.542045
H       -1.179262      -1.461844      -3.070606
H       -2.955008      -1.613972      -2.907221
H       -2.156343      -0.003822      -2.741488
C       -1.923899      -3.187964      -0.611658
H       -2.887570      -3.524097      -1.021952
H       -1.104192      -3.658496      -1.173760
H       -1.853487      -3.494220       0.440977
C        2.276036       0.223112       2.814762
H        3.185671       0.665830       3.246131
H        1.399296       0.666511       3.309570
H        2.270924      -0.860650       2.994709
C        2.406441       2.385502       0.934171
H        1.588402       2.899938       1.457709
H        3.370867       2.636898       1.401264
H        2.403483       2.709875      -0.114846
C        0.887235      -2.219190       0.676213
H        0.251816      -2.641138       1.473225
H        0.864115      -2.903284      -0.186792
H        1.923864      -2.191987       1.042677
I       -0.859309       2.179000      -0.764775
