             47

Pt       0.000003       0.011057      -0.000544
Cl       0.099667      -0.018765      -2.403563
Cl      -0.100182       0.083183       2.399750
P       -2.365903      -0.005213      -0.234116
P        2.365387       0.000257       0.235165
C       -2.944733      -1.437764      -1.249938
H       -4.028152      -1.329357      -1.423961
H       -2.441215      -1.313310      -2.221248
C       -2.980808       1.471134      -1.161103
H       -4.055972       1.335851      -1.365951
H       -2.455957       1.430661      -2.128738
C       -3.325758      -0.073294       1.344241
H       -2.965550      -0.968304       1.875365
H       -2.975081       0.776762       1.949497
C        2.941005      -1.397202       1.300141
H        4.023787      -1.282677       1.474146
H        2.434395      -1.240829       2.265225
C        3.327852      -0.121323      -1.338470
H        2.974889       0.705232      -1.974184
H        2.971995      -1.036044      -1.838002
C        2.979949       1.507787       1.111399
H        4.054120       1.377902       1.324706
H        2.451614       1.503221       2.077894
C       -2.613222      -2.805753      -0.648811
H       -2.928703      -3.609448      -1.332793
H       -1.530217      -2.912557      -0.478366
H       -3.123666      -2.972004       0.313065
C       -2.714729       2.806079      -0.461220
H       -1.640627       2.943055      -0.259247
H       -3.048970       3.642456      -1.095188
H       -3.250451       2.883990       0.497987
C       -4.850958      -0.079268       1.218581
H       -5.309328      -0.123687       2.219503
H       -5.230967       0.828963       0.725464
H       -5.218326      -0.949270       0.652198
C        2.718969       2.817600       0.363708
H        1.645916       2.949603       0.153224
H        3.052567       3.675251       0.968965
H        3.258234       2.860810      -0.595672
C        2.611249      -2.783851       0.742371
H        2.920193      -3.565078       1.454752
H        1.529280      -2.894227       0.567168
H        3.128512      -2.982387      -0.209663
C        4.852869      -0.116060      -1.210146
H        5.222943      -0.962555      -0.610841
H        5.313429      -0.195499      -2.207874
H        5.227448       0.811728      -0.750446
