             29

Pt       0.039290      -0.723145      -0.007273
Cl      -1.380500      -2.468130       0.792182
Cl       1.745248      -2.191263      -0.797321
N       -1.480719       0.567585       0.658918
H       -2.161107      -0.074310       1.083561
H       -1.138066       1.150799       1.428964
N        1.303777       0.811136      -0.678146
H        2.011528       0.311673      -1.230038
H        0.820766       1.425070      -1.341277
C        1.982712       1.622487       0.365836
H        2.498827       0.920620       1.037504
H        1.208886       2.129574       0.962291
C        2.964334       2.641840      -0.210464
H        2.424854       3.322537      -0.892602
H        3.715224       2.113575      -0.823925
C        3.662934       3.449670       0.884475
H        4.231580       2.793933       1.564142
H        4.368136       4.174929       0.450732
H        2.936079       4.011895       1.493640
C       -2.161804       1.416296      -0.351295
H       -2.498017       0.755186      -1.163854
H       -1.414823       2.101986      -0.779807
C       -3.334117       2.207512       0.227542
H       -2.972019       2.833378       1.062333
H       -4.066297       1.502837       0.659992
C       -4.015707       3.086131      -0.822302
H       -4.412216       2.482023      -1.654771
H       -4.857097       3.643149      -0.382610
H       -3.313098       3.821501      -1.247749
