             47

Pt      -0.112844      -1.144841      -0.070386
O       -1.178249       0.587416       0.265950
O        1.466798       0.155103      -0.333739
C       -2.249235       0.927361      -0.377523
C        2.655108      -0.096288       0.115272
O       -2.868144       0.221090      -1.177526
O        3.032601      -1.163641       0.618990
N        1.066081      -2.839974      -0.287783
N       -1.649353      -2.568062       0.260274
C        3.623227       1.054963      -0.020046
C        4.960749       0.871573       0.364880
C        3.213484       2.304444      -0.512720
C        5.876916       1.919922       0.256983
H        5.263001      -0.103958       0.749812
C        4.130249       3.353457      -0.618660
H        2.171472       2.440497      -0.805360
C        5.462852       3.163268      -0.235172
H        6.916842       1.769247       0.558492
H        3.804424       4.324415      -1.000811
H        6.179037       3.985142      -0.318414
C       -2.743541       2.321888      -0.056514
C       -2.035789       3.178695       0.801616
C       -3.939534       2.769334      -0.639568
C       -2.519738       4.461416       1.072789
H       -1.103794       2.827989       1.247204
C       -4.424116       4.050574      -0.367464
H       -4.475566       2.092178      -1.307132
C       -3.714539       4.899550       0.490090
H       -1.962455       5.123557       1.740810
H       -5.356960       4.390156      -0.825464
H       -4.092092       5.903261       0.703235
C        0.312064      -4.085996       0.007441
C       -0.920430      -3.747168       0.833922
H        1.866072      -2.634347       0.337609
H        1.471724      -2.880511      -1.226105
H        0.031144      -4.557909      -0.944177
H        0.941462      -4.805832       0.551712
H       -1.601660      -4.613553       0.894611
H       -0.623865      -3.475937       1.857122
C       -2.666621      -2.101482       1.236951
H       -3.246859      -1.293661       0.779163
H       -3.342012      -2.934532       1.496355
H       -2.168619      -1.734669       2.142749
C       -2.337244      -2.922418      -1.012983
H       -1.611977      -3.284977      -1.750857
H       -3.089784      -3.707814      -0.824070
H       -2.812014      -2.013170      -1.399003
