             42

Pt      -1.004251       0.062525      -0.041688
H       -1.967030      -1.755536      -1.582402
H       -3.108453      -0.601784      -1.530866
H       -1.194700       2.589477      -0.255801
H       -2.056268       1.991109      -1.501642
N       -2.469616      -1.137740      -0.936342
N       -1.912556       1.894669      -0.491139
O       -0.058632      -1.677203       0.469342
O        0.440116       1.162418       0.895437
C        1.241381      -1.751910       0.580524
C        1.666961       0.726688       1.011062
O        1.795281      -2.768527       0.976647
O        2.476581       1.277861       1.745439
C        2.062865      -0.506099       0.163978
C        3.570032      -0.769084       0.170571
H        3.915663      -0.818411       1.215895
H        3.744844      -1.767510      -0.260484
C        4.390711       0.272198      -0.596431
H        4.041408       0.313354      -1.645759
H        4.203488       1.271013      -0.167590
C        5.896858      -0.007366      -0.580272
H        6.086433      -1.010611      -1.004378
H        6.243778      -0.055239       0.468225
C        6.719396       1.033432      -1.341635
H        7.796883       0.804785      -1.306982
H        6.422821       1.080106      -2.403256
H        6.578881       2.041871      -0.916832
H        1.732052      -0.273626      -0.865368
C       -3.257529      -1.976575       0.010444
H       -2.528169      -2.522689       0.624155
H       -3.803440      -1.293436       0.676846
C       -3.172177       2.241020       0.224143
H       -3.921884       1.479059      -0.034521
H       -2.971006       2.144691       1.300593
C       -3.678788       3.636407      -0.116307
H       -3.898649       3.734070      -1.191721
H       -4.607200       3.842367       0.438089
H       -2.942428       4.408759       0.158800
C       -4.209026      -2.930530      -0.699610
H       -3.662990      -3.628516      -1.355082
H       -4.761411      -3.527785       0.041951
H       -4.946709      -2.386443      -1.311563
