              7

Pt       0.000000       0.321308       0.000000
N       -1.591868       1.629400       0.000000
O       -2.743406       1.199025       0.000000
O       -1.382554       2.840281       0.000000
Cl       1.591767       2.131808       0.000000
Br       2.017890      -1.294788       0.000000
Br      -1.529584      -1.705870       0.000000
