             17

Pt      -0.624113      -0.000454      -0.005871
S        1.629617       0.277651       0.002464
O        2.282349       1.631501       0.000469
C        2.278459      -0.668782       1.404801
H        1.797424      -1.655637       1.370921
H        3.373025      -0.719993       1.322037
H        1.979444      -0.118793       2.306538
C        2.306991      -0.688755      -1.373227
H        3.398584      -0.750689      -1.262771
H        1.810807      -1.668236      -1.337490
H        2.036406      -0.145960      -2.288332
O       -2.622833      -0.336433      -0.071591
H       -2.849357      -0.645376       0.819262
O       -0.202594      -2.029061       0.000656
H       -1.074892      -2.431491      -0.123410
O       -1.118514       1.983265       0.000111
H       -2.084436       1.880250      -0.014827
