             47

Pt       0.000055       0.003120       0.000013
As      -2.457963      -0.001682      -0.190291
As       2.458059      -0.001780       0.190256
Cl       0.055611       0.018089      -2.404510
Cl      -0.055426       0.020260       2.404432
C       -3.135175      -1.469958      -1.312953
H       -4.220777      -1.328409      -1.433741
H       -2.663950      -1.307056      -2.293904
C       -3.154307       1.604650      -1.091464
H       -4.236752       1.465846      -1.241042
H       -2.677466       1.595738      -2.083411
C       -3.468646      -0.131199       1.496126
H       -3.090948       0.686443       2.127957
H       -3.126894      -1.062856       1.972330
C        3.468781      -0.132158      -1.496063
H        3.127374      -1.064312      -1.971561
H        3.090771       0.684865      -2.128496
C        3.135018      -1.469575       1.313710
H        4.220754      -1.328563       1.433975
H        2.664235      -1.305734       2.294718
C        3.154220       1.605079       1.090609
H        2.677134       1.596728       2.082441
H        4.236635       1.466456       1.240519
C        2.800249      -2.858016       0.770583
H        3.155974      -3.637433       1.463810
H        1.713072      -2.988958       0.648383
H        3.272933      -3.046249      -0.206510
C        2.847964       2.902859       0.344338
H        1.764077       3.033949       0.196431
H        3.216072       3.770549       0.915390
H        3.328389       2.932723      -0.646533
C        4.990080      -0.091646      -1.364287
H        5.457388      -0.174791      -2.359319
H        5.342459       0.850502      -0.916150
H        5.376654      -0.921157      -0.751731
C       -2.847999       2.902904      -0.346051
H       -3.328210       2.933312       0.644906
H       -1.764094       3.034193      -0.198460
H       -3.216308       3.770220      -0.917540
C       -4.989963      -0.091278       1.364349
H       -5.376310      -0.921498       0.752610
H       -5.457221      -0.173586       2.359474
H       -5.342637       0.850334       0.915310
C       -2.801367      -2.858199      -0.768740
H       -3.157087      -3.637900      -1.461655
H       -1.714320      -2.989598      -0.645859
H       -3.274675      -3.045573       0.208217
