             47

Pt       0.008314      -0.750485      -0.079790
P        1.770397       0.771119       0.007472
P       -1.756593       0.744538       0.114424
C        2.484584       0.913521       1.715153
H        3.443602       1.446185       1.605280
H        1.813171       1.592363       2.267202
C        1.456833       2.539273      -0.470552
H        0.576317       2.880884       0.091982
H        1.158627       2.513687      -1.530545
C        3.199689       0.304724      -1.072305
H        3.970998       1.077859      -0.922823
H        3.587900      -0.639572      -0.668786
C       -1.914389       1.930284      -1.302319
H       -0.926294       2.368938      -1.484740
H       -2.122034       1.292747      -2.176995
C       -3.451760      -0.002226       0.242524
H       -3.363643      -0.837557       0.950517
H       -4.082931       0.769868       0.713980
C       -1.663075       1.758843       1.663786
H       -0.765954       2.393104       1.597372
H       -2.529607       2.439776       1.666633
C        2.680365      -0.387456       2.495255
H        3.142998      -0.165821       3.470184
H        1.721496      -0.894876       2.676602
H        3.326899      -1.097927       1.961046
C       -1.629656       0.921486       2.945851
H       -2.548725       0.329285       3.071907
H       -0.778003       0.224100       2.947124
H       -1.535664       1.578505       3.824459
C        2.609013       3.530361      -0.271253
H        3.505530       3.253106      -0.845277
H        2.295925       4.527885      -0.617542
H        2.895340       3.625797       0.786571
C       -2.968560       3.033571      -1.162747
H       -2.730343       3.726907      -0.342007
H       -3.009005       3.625376      -2.090847
H       -3.978003       2.633018      -0.985355
C        2.856359       0.139858      -2.553877
H        3.767338      -0.101442      -3.124375
H        2.140500      -0.682799      -2.697311
H        2.427014       1.054379      -2.993176
C       -4.083018      -0.488440      -1.064164
H       -3.446633      -1.236296      -1.556217
H       -5.051656      -0.965911      -0.845598
H       -4.277156       0.334397      -1.768683
Cl       1.746429      -2.472885      -0.247448
Cl      -1.566540      -2.610985      -0.080640
