              9

Pt       0.000000       0.000000       0.287486
N        0.000000       1.542736       1.708154
O        0.000000       1.313170       2.910358
O        0.000000       2.703211       1.301374
N        0.000000      -1.542736       1.708154
O        0.000000      -1.313170       2.910358
O        0.000000      -2.703211       1.301374
Br       0.000000       1.745504      -1.624655
Br       0.000000      -1.745504      -1.624655
