             53

Pt      -0.945329      -0.542663      -0.212753
O       -0.839384       1.155521      -1.409223
O        1.095151      -0.699429      -0.461633
C       -1.065520       2.408773      -1.115523
C        1.991391      -0.948385       0.442396
O       -1.971463       3.050796      -1.646740
O        1.775879      -1.188656       1.631858
N       -1.252467      -2.369611       0.816224
N       -3.071423      -0.419362      -0.227088
C        3.409989      -0.935837      -0.084620
C        4.459702      -1.262984       0.788590
C        3.702383      -0.610704      -1.419188
C        5.780834      -1.267116       0.336334
H        4.215847      -1.514092       1.822488
C        5.025002      -0.611605      -1.870517
H        2.883219      -0.354921      -2.092772
C        6.065946      -0.940593      -0.994790
H        6.591915      -1.524408       1.022694
H        5.245355      -0.354375      -2.909856
H        7.100102      -0.942029      -1.349497
C       -0.156684       3.096578      -0.121558
C        1.092392       2.564362       0.231058
C       -0.555163       4.328887       0.423747
C        1.924409       3.246941       1.123706
H        1.401268       1.616611      -0.208760
C        0.268841       5.004209       1.325961
H       -1.518497       4.744601       0.122238
C        1.512027       4.463655       1.677767
H        2.898640       2.826804       1.386907
H       -0.053900       5.957612       1.752899
H        2.160882       4.993971       2.380133
C       -2.647763      -2.765109       0.448502
C       -3.581915      -1.579984       0.569343
H       -2.625000      -3.140922      -0.584054
H       -2.987200      -3.590948       1.096971
H       -4.596391      -1.850044       0.233290
H       -3.663910      -1.259265       1.616108
C       -3.593621       0.843001       0.361546
H       -3.307092       1.688548      -0.273388
H       -4.694520       0.795463       0.418787
H       -3.180672       0.977498       1.369278
C       -3.521216      -0.505608      -1.644627
H       -3.201139      -1.458677      -2.083403
H       -4.620836      -0.429750      -1.691306
H       -3.061157       0.318613      -2.201933
C       -1.117758      -2.189562       2.291128
H       -1.342663      -3.142479       2.800679
H       -0.089529      -1.871540       2.494405
H       -1.808265      -1.416554       2.646937
C       -0.318845      -3.444428       0.385661
H        0.687516      -3.204999       0.742876
H       -0.638741      -4.404952       0.823847
H       -0.320362      -3.522002      -0.708385
