             28

Pt       0.168523      -0.246463       0.123632
O       -1.497672      -1.420534       0.317493
O       -0.967436       1.448580       0.304503
C       -2.681750      -1.044559      -0.084229
C       -2.208413       1.517202      -0.099507
O       -3.675625      -1.737832       0.090013
O       -2.887506       2.522501       0.061263
C       -2.789960       0.295404      -0.821015
N        1.437616      -1.894369      -0.021429
N        1.956810       0.870898      -0.038401
H       -2.245581       0.188293      -1.776346
H       -3.845776       0.488778      -1.041291
C        2.758338      -1.433470      -0.530413
C        3.086002      -0.105175       0.130747
H        1.541200      -2.325692       0.903162
H        1.048578      -2.623411      -0.625695
H        3.545620      -2.171005      -0.313825
H        2.683160      -1.335608      -1.622017
H        3.228185      -0.255777       1.210466
H        4.017100       0.321961      -0.275304
C        2.009941       1.523386      -1.373906
H        1.134224       2.174148      -1.484267
H        2.930632       2.124167      -1.462515
H        1.990574       0.767167      -2.167579
C        2.023882       1.916864       1.014960
H        2.954530       2.498991       0.911735
H        1.153781       2.575158       0.909690
H        1.995660       1.441588       2.003310
