              9

Pt       0.000000       0.000000       0.101001
N        0.000000       1.540918      -1.307017
O        0.000000       1.322737      -2.512708
O        0.000000       2.699912      -0.892958
N        0.000000      -1.540918      -1.307017
O        0.000000      -1.322737      -2.512708
O        0.000000      -2.699912      -0.892958
Cl       0.000000      -1.636978       1.909141
Cl       0.000000       1.636978       1.909141
