             26

Pt       0.787145       0.067198      -0.010811
Cl       3.234698       0.246315      -0.046166
Cl       0.960281      -2.325118       0.219305
Cl       0.625046       2.449940      -0.184247
P       -1.470744      -0.215322       0.022673
C       -2.049167      -1.390543      -1.283449
H       -1.523288      -2.331179      -1.060049
H       -3.127957      -1.567049      -1.137614
C       -2.045275      -0.994695       1.598011
H       -3.118925      -1.229048       1.501734
H       -1.500683      -1.950765       1.644822
C       -2.474761       1.321071      -0.191967
H       -2.135360       2.013508       0.593165
H       -2.128926       1.775101      -1.133384
C       -3.995661       1.149290      -0.174026
H       -4.482781       2.127639      -0.319497
H       -4.349326       0.483889      -0.977682
H       -4.356060       0.743280       0.785024
C       -1.768369      -0.158767       2.849929
H       -2.078224      -0.708999       3.752739
H       -0.694813       0.069199       2.942438
H       -2.316424       0.796930       2.840355
C       -1.744690      -0.937202      -2.712294
H       -0.664643      -0.772100      -2.850619
H       -2.066714      -1.704753      -3.434237
H       -2.264910      -0.001543      -2.972407
