              9

Pt       0.000000       0.000000       0.267922
N        0.000000       2.109869       0.281277
O        0.000000       2.715485       1.352104
O        0.000000       2.739550      -0.776013
Cl       0.000000       0.000000       2.680776
N        0.000000      -2.109869       0.281277
O        0.000000      -2.739550      -0.776013
O        0.000000      -2.715485       1.352104
Br       0.000000       0.000000      -2.275041
