             37

Pt      -0.000009       0.000033      -0.000413
Cl       0.000070      -2.393869      -0.000160
Cl       0.000392       2.393965      -0.000559
C       -2.742778       0.804742       0.841088
C       -2.743196      -0.804469      -0.840981
C       -4.139310       0.838471       0.883645
H       -2.139550       1.450789       1.478518
C       -4.139744      -0.838368      -0.882692
C       -4.830836      -0.000009       0.000709
C        2.743072       0.803105      -0.842232
C        2.742625      -0.803414       0.842424
C        4.139616       0.836782      -0.884121
H        2.140143       1.448082      -1.481033
C        4.139162      -0.837080       0.885064
C        4.830687      -0.000125       0.000684
N       -2.065576       0.000166      -0.000144
N        2.065469      -0.000150      -0.000066
H        2.139372      -1.448392       1.480924
H        5.925204      -0.000046       0.001011
H       -2.140279      -1.450433      -1.478795
H       -5.925354      -0.000107       0.001077
C       -4.861915      -1.745948      -1.844270
H       -5.529347      -2.438443      -1.306539
H       -5.488914      -1.164241      -2.539376
H       -4.158233      -2.344157      -2.440004
C       -4.860998       1.746127       1.845514
H       -5.527032       2.440054       1.307874
H       -5.489360       1.164663       2.539573
H       -4.156965       2.342858       2.442315
C        4.860858      -1.742972       1.848586
H        5.527611      -2.437240       1.312271
H        5.488504      -1.160142       2.542146
H        4.156874      -2.339291       2.445847
C        4.861852       1.742570      -1.847340
H        5.488330       1.159492      -2.541760
H        4.158248       2.340206      -2.443733
H        5.529816       2.435564      -1.310903
