             33

Pt       0.095468      -0.328011      -0.211114
O       -1.660978      -1.319189      -0.607227
O       -0.966640       1.401944      -0.601434
C       -2.725152      -1.395839       0.149154
C       -0.980164       2.508939       0.075811
O       -3.739836      -1.965323      -0.242423
O       -0.311296       2.755685       1.079332
C       -2.670209      -0.770720       1.536899
H       -2.483994       0.310514       1.459205
H       -3.618926      -0.945320       2.061148
H       -1.840049      -1.199817       2.119401
C       -1.929486       3.548973      -0.508961
H       -1.576319       3.853159      -1.507236
H       -2.935303       3.120929      -0.636129
H       -1.978407       4.431103       0.142524
N        1.082547      -2.152489      -0.032722
N        2.042493       0.480970       0.097195
C        2.495584      -1.944017       0.383309
C        2.984150      -0.641752      -0.225245
H        1.043207      -2.613079      -0.947882
H        0.599886      -2.781709       0.614561
H        2.524914      -1.911760       1.480427
H        3.129714      -2.782052       0.058325
H        3.026969      -0.732424      -1.320396
H        3.996783      -0.394085       0.134143
C        2.329859       1.634432      -0.792954
H        1.693476       2.475115      -0.496480
H        3.388363       1.928694      -0.693418
H        2.123405       1.357889      -1.834433
C        2.208891       0.914068       1.513366
H        2.039195       0.068117       2.189732
H        3.231613       1.300054       1.664482
H        1.462884       1.690760       1.713350
