              7

Pt       0.000000       0.000000       0.081042
Cl       0.000000       2.408900       0.174545
Cl       0.000000      -2.408900       0.174545
Cl       0.000000       0.000000       2.516937
N        0.000000       0.000000      -1.966138
O        0.000000      -1.066344      -2.580048
O        0.000000       1.066344      -2.580048
