             13

Pt       0.000000       0.000000       0.000000
N        0.000000       2.207736       0.000000
O        1.056147       2.829132       0.000000
O       -1.056147       2.829132       0.000000
N        0.000000      -2.207736       0.000000
O       -1.056147      -2.829132       0.000000
O        1.056147      -2.829132       0.000000
N        2.207736       0.000000       0.000000
O        2.829132       1.056147       0.000000
O        2.829132      -1.056147       0.000000
N       -2.207736       0.000000       0.000000
O       -2.829132       1.056147       0.000000
O       -2.829132      -1.056147       0.000000
