             31

Pt      -0.000017      -0.764206       0.000012
Cl      -1.682692      -2.422430      -0.285179
Cl       1.682555      -2.422607       0.285033
C        2.401286       0.948699      -0.738686
C        1.489192       1.392036       1.373892
C        3.376545       1.931883      -0.513928
C        2.435145       2.371543       1.646738
H        0.719569       1.138058       2.102744
C        3.401850       2.649021       0.678826
C       -2.401300       0.948741       0.738683
C       -1.488934       1.392300      -1.373729
C       -3.376601       1.931865       0.513861
C       -2.434910       2.371768      -1.646627
H       -0.719153       1.138501      -2.102474
C       -3.401801       2.649075      -0.678851
N        1.467233       0.699431       0.215289
N       -1.467128       0.699562      -0.215196
H        4.164858       3.411505       0.850955
H       -4.164856       3.411500      -0.851032
H        2.407203       2.897528       2.602065
H       -2.406836       2.897851      -2.601897
H        4.117040       2.121792      -1.292447
H       -4.117190       2.121707       1.292308
C        2.389204       0.156127      -2.011917
H        2.564485      -0.906626      -1.785491
H        1.408940       0.210976      -2.508572
H        3.161847       0.519305      -2.702341
C       -2.389266       0.156126       2.011879
H       -2.564622      -0.906615       1.785414
H       -1.408965       0.210858       2.508466
H       -3.161876       0.519305       2.702337
