             26

Pt       0.042442      -0.630786      -0.004130
S        1.791191       0.839750      -0.151970
O        2.417024       0.854435      -1.504002
C        1.400980       2.526915       0.332568
H        1.145778       2.544472       1.400234
H        2.305165       3.113863       0.121369
H        0.544547       2.839222      -0.278464
C        3.007266       0.324983       1.073499
H        3.901244       0.941005       0.905890
H        2.582832       0.472327       2.075340
H        3.175199      -0.739848       0.871396
O       -1.256525      -2.390542       0.139491
H       -1.703400      -2.709739      -0.661825
O        1.532081      -1.987107      -0.077634
H        1.163766      -2.776420       0.350816
H       -1.864306      -2.502386       0.888455
S       -1.748650       0.940913      -0.052413
O       -1.485366       2.293744      -0.648364
C       -3.135714       0.213947      -0.954711
H       -3.960871       0.937654      -0.914159
H       -2.787506       0.074118      -1.986207
H       -3.417730      -0.744367      -0.502200
C       -2.444876       1.170925       1.600570
H       -1.659068       1.637318       2.207562
H       -3.310923       1.839987       1.502291
H       -2.729475       0.198674       2.024264
