             47

Pt      -0.196203       0.941351      -0.048713
Cl       1.430033       2.783302      -0.146668
Cl      -1.979860       2.601572      -0.082784
As      -1.856455      -0.801449       0.061019
As       1.803184      -0.423243       0.010005
C       -3.717604      -0.172994      -0.131887
H       -3.889254       0.492266       0.726022
H       -3.723810       0.475238      -1.019001
C       -1.706481      -2.198165      -1.320803
H       -0.779984      -2.751322      -1.116076
H       -2.540014      -2.898310      -1.156252
C       -1.882997      -1.785149       1.770599
H       -2.777746      -2.426733       1.753618
H       -1.011118      -2.455769       1.769407
C        2.847294      -0.056260      -1.629106
H        2.086230      -0.059591      -2.425321
H        3.172071       0.987880      -1.515679
C        1.666528      -2.397368       0.099246
H        1.468928      -2.725460      -0.933022
H        0.761392      -2.608678       0.683842
C        2.865565       0.109350       1.592022
H        2.556140       1.148853       1.763529
H        2.468019      -0.496426       2.422167
C       -1.867164      -0.870083       2.993897
H       -2.747288      -0.208630       3.025038
H       -1.870966      -1.469562       3.918334
H       -0.967677      -0.234563       3.004096
C       -1.711232      -1.633323      -2.740715
H       -1.598117      -2.445712      -3.476284
H       -2.650565      -1.106473      -2.971378
H       -0.883215      -0.922532      -2.891079
C       -4.774913      -1.271513      -0.221046
H       -5.777182      -0.814077      -0.254768
H       -4.667024      -1.882510      -1.130048
H       -4.757215      -1.948975       0.646907
C        4.001265      -0.993008      -1.980095
H        4.464525      -0.661322      -2.923925
H        4.789043      -0.998044      -1.213499
H        3.664082      -2.029408      -2.133579
C        2.856044      -3.149703       0.697900
H        3.039300      -2.862849       1.744084
H        2.645807      -4.231613       0.688867
H        3.784301      -2.991362       0.131300
C        4.387940       0.013144       1.498449
H        4.785713       0.646868       0.691271
H        4.834570       0.369887       2.441260
H        4.744433      -1.014063       1.335950
