             15

Pt      -0.559598       0.130232      -0.000025
S        1.641708      -0.597440       0.000070
O        1.944511      -2.066577      -0.000035
C        2.523255       0.145468      -1.398349
H        2.344063       1.228422      -1.383560
H        3.587982      -0.109618      -1.305931
H        2.089932      -0.309421      -2.298688
C        2.522709       0.145440       1.398780
H        3.587662      -0.108730       1.306434
H        2.342724       1.228275       1.384289
H        2.089631      -0.310007       2.298953
Cl       0.213831       2.414082      -0.000224
O       -2.446210       0.818437       0.000469
H       -2.977561       0.005899      -0.000078
Cl      -1.504734      -2.060210      -0.000170
