             67

Pt      -0.076584       0.465374      -0.050839
C        1.092767       2.156416       0.002602
C        1.332461       2.946255      -1.141320
C        1.686811       2.591607       1.206442
C        2.135370       4.093634      -1.093240
H        0.880922       2.664489      -2.098126
C        2.487821       3.740512       1.264430
H        1.526022       2.021314       2.127663
C        2.720574       4.498551       0.111857
H        2.300605       4.677708      -2.004258
H        2.931740       4.044055       2.217975
H        3.346196       5.394644       0.152717
C       -1.669283       1.774530      -0.049120
C       -2.315357       2.135327      -1.250963
C       -2.145067       2.387938       1.128712
C       -3.387460       3.038512      -1.276107
H       -1.973205       1.707029      -2.199011
C       -3.217409       3.289810       1.114121
H       -1.664666       2.166443       2.086815
C       -3.849456       3.619154      -0.090320
H       -3.861412       3.290622      -2.230135
H       -3.557104       3.742544       2.051161
H       -4.685705       4.323797      -0.104973
As       2.030249      -0.946179      -0.090070
As      -1.775947      -1.424900      -0.053062
C       -3.257025      -1.128290       1.221971
H       -3.731359      -0.188355       0.902392
H       -3.997098      -1.932713       1.093862
C       -1.250258      -3.312016       0.324313
H       -0.826426      -3.683215      -0.622108
H       -0.414369      -3.247363       1.037590
C       -2.708859      -1.534763      -1.798305
H       -1.904025      -1.667342      -2.539758
H       -3.105847      -0.519310      -1.952121
C        1.985624      -2.644922      -1.131826
H        1.495927      -3.380385      -0.476664
H        1.279264      -2.440869      -1.952137
C        2.558668      -1.482556       1.750982
H        3.009084      -0.578209       2.191662
H        1.598637      -1.627493       2.271112
C        3.610704       0.000265      -0.832193
H        3.410863       1.060811      -0.627420
H        3.526948      -0.123444      -1.924506
C        3.292029      -3.207441      -1.691515
H        3.085445      -4.118438      -2.278247
H        3.793527      -2.497137      -2.366168
H        4.003997      -3.484408      -0.900229
C        3.459562      -2.702192       1.942089
H        3.620465      -2.888546       3.017329
H        3.009817      -3.614629       1.520252
H        4.448846      -2.569417       1.481156
C        5.006173      -0.381331      -0.339030
H        5.269070      -1.424973      -0.563952
H        5.761429       0.258402      -0.826131
H        5.111594      -0.231635       0.746795
C       -3.803222      -2.583578      -1.990990
H       -4.605523      -2.492426      -1.242190
H       -4.269461      -2.465769      -2.983622
H       -3.406623      -3.608955      -1.939485
C       -2.318192      -4.270039       0.854128
H       -1.890609      -5.279562       0.975316
H       -2.698651      -3.960544       1.838968
H       -3.179102      -4.358632       0.176283
C       -2.788216      -1.028913       2.673773
H       -2.039909      -0.231160       2.797736
H       -3.635306      -0.800970       3.341702
H       -2.334908      -1.968358       3.028569
