             32

Pt      -0.072754      -0.234038      -0.009138
S        2.291588      -0.628161      -0.130766
O        3.048129       0.360402      -0.960932
C        2.937165      -0.652786       1.552241
H        2.429473      -1.451970       2.108690
H        4.021469      -0.818913       1.486433
H        2.701723       0.337929       1.960376
C        2.677886      -2.274154      -0.755855
H        3.774722      -2.338405      -0.749734
H        2.205901      -3.032335      -0.121987
H        2.285122      -2.316776      -1.779186
S        0.552866       2.053484       0.141832
O        1.730578       2.215307       1.052657
C        0.953042       2.685796      -1.498641
H        0.059205       2.610738      -2.132745
H        1.293949       3.724131      -1.383483
H        1.759860       2.034916      -1.858877
C       -0.706429       3.205563       0.727909
H       -0.170326       4.151858       0.884439
H       -1.502090       3.324636      -0.014889
H       -1.082370       2.814488       1.681290
S       -2.501171      -0.235262      -0.185022
O       -2.932787      -1.080568      -1.338085
C       -3.388556       1.333133      -0.339765
H       -2.997103       1.840844      -1.229934
H       -4.438128       1.049196      -0.498051
H       -3.277139       1.938861       0.566752
C       -3.183604      -0.886830       1.356511
H       -4.272790      -0.955077       1.228777
H       -2.729385      -1.875657       1.488982
H       -2.906576      -0.212399       2.178172
Cl      -0.439862      -2.590442       0.199855
