              7

Pt       0.000000       0.285274       0.000000
Cl       0.412520       2.664133       0.000000
N        2.010972      -0.132715       0.000000
O        2.829027       0.786126       0.000000
O        2.397348      -1.300982       0.000000
Br      -0.641496      -2.174694       0.000000
Cl      -2.379311       0.801206       0.000000
