             24

Pt      -0.305596       0.151681      -0.019352
S        1.919002      -0.513897      -0.118426
O        2.614653      -0.131457      -1.384377
C        2.153320      -2.288364       0.132602
H        3.237256      -2.466913       0.110073
H        1.717589      -2.597076       1.092340
H        1.671913      -2.795297      -0.713600
C        2.813905       0.176961       1.288887
H        3.867416      -0.114533       1.179052
H        2.684756       1.264062       1.218472
H        2.373287      -0.210112       2.217561
N       -1.256305      -1.739328       0.084856
N       -2.304029       0.812952      -0.042214
C       -2.707388      -1.578290      -0.235191
C       -3.205415      -0.288960       0.390454
H       -1.148852      -2.101403       1.038272
H       -0.849301      -2.445274      -0.534127
H       -2.417545       1.643995       0.545367
H       -2.524275       1.109076      -0.999198
H       -2.803543      -1.541741      -1.329785
H       -3.278270      -2.444045       0.131005
H       -3.162836      -0.345129       1.487852
H       -4.245294      -0.083844       0.096112
Cl       0.452280       2.407510      -0.048183
