             14

Pt       0.118313       0.003684      -0.013414
S       -2.198233       0.157391      -0.123687
O       -2.829303      -0.494400      -1.317034
C       -2.859372       1.837910      -0.033334
H       -3.952567       1.732541      -0.060821
H       -2.509727       2.331153       0.881208
H       -2.488907       2.368850      -0.917649
C       -2.914269      -0.564148       1.374774
H       -4.007097      -0.483187       1.291491
H       -2.588814      -1.611387       1.389485
H       -2.528365      -0.023023       2.249484
Br       0.451603       2.510782       0.012930
Br       2.625140      -0.298142       0.034743
Br      -0.182599      -2.521437      -0.028252
