             31

Pt       0.037921      -0.076101       0.370221
N        0.928976       1.774760       0.973884
N       -1.917174       0.540860       0.988149
H        0.295446       2.305232       1.579493
H        1.703052       1.491432       1.583698
H       -1.862089       1.343965       1.621868
H       -2.230157      -0.236702       1.579002
C       -2.965079       0.797415      -0.024890
C       -4.399583       1.113799       0.464984
C       -2.955916       2.133271      -0.792203
H       -2.963831      -0.058792      -0.712289
C       -4.505226       2.132435      -0.700028
H       -4.387954       1.618839       1.444481
H       -5.114588       0.278373       0.503077
H       -2.525447       2.942425      -0.182036
H       -2.483573       2.146666      -1.785049
H       -4.994589       3.092865      -0.484084
H       -4.971607       1.689739      -1.592859
C        1.468300       2.675554      -0.069768
C        0.493830       3.517636      -0.913936
C        2.181432       3.979235       0.365221
H        2.123829       2.069053      -0.708924
C        1.539612       4.663667      -0.870075
H       -0.404149       3.786967      -0.337045
H        0.184106       3.114437      -1.889085
H        1.764120       4.372891       1.306432
H        3.278522       3.952071       0.444464
H        1.158119       5.686080      -0.737326
H        2.208398       4.645057      -1.743716
I       -1.051343      -2.450839      -0.304364
I        2.523752      -0.956559      -0.209927
