             21

Pt      -0.344696      -0.074695       0.035956
Cl      -1.035717       2.208475      -0.114687
Cl      -2.584929      -0.875191      -0.014187
N        1.730248       0.441771       0.041118
N        0.375414      -2.030911       0.103791
C        1.794739      -2.021400      -0.334539
C        2.475996      -0.832937       0.318957
H        2.488562      -0.973258       1.409414
H        3.520736      -0.737424      -0.018315
H        2.304005      -2.955878      -0.053142
H        1.808248      -1.947163      -1.430500
C        2.054083       1.443236       1.089929
H        3.134874       1.663444       1.078358
H        1.480903       2.356186       0.894282
H        1.769442       1.045439       2.072102
C        2.098063       0.991694      -1.291374
H        1.486781       1.881250      -1.483106
H        3.167965       1.260005      -1.304089
H        1.897610       0.249123      -2.073313
H       -0.194144      -2.651089      -0.478658
H        0.295370      -2.389841       1.061017
