             23

Pt      -0.011062       0.302015      -0.239583
N        1.519387       1.750793      -0.561181
N       -1.530357       1.762993      -0.551671
H        1.181304       2.492495      -1.182046
H        2.254174       1.274570      -1.094274
H       -1.290076       2.344614      -1.360570
H       -2.362616       1.236971      -0.838644
C        2.125242       2.364385       0.652486
H        2.537274       1.542243       1.253991
H        1.312853       2.818804       1.237342
C       -1.882108       2.630333       0.604739
H       -2.160658       1.964828       1.434151
H       -0.972734       3.167125       0.910333
C        3.197468       3.394478       0.319506
H        3.614736       3.811090       1.249210
H        4.026411       2.944004      -0.250132
H        2.786497       4.230721      -0.269358
C       -3.004763       3.611187       0.288396
H       -3.222816       4.225454       1.175609
H       -2.727342       4.291591      -0.533112
H       -3.931080       3.085591       0.005855
I        1.937588      -1.525517       0.111876
I       -1.988934      -1.485541       0.143754
