             11

Pt      -0.000023       0.525944      -0.000010
H        1.440171       2.650907      -0.771806
H        1.508501       2.548273       0.873964
H        2.421403       1.535203      -0.052634
H       -1.508420       2.548643      -0.873692
H       -2.421490       1.535271       0.052398
H       -1.440115       2.650490       0.772138
N        1.507334       1.994953       0.011872
N       -1.507355       1.994922      -0.011856
Br       1.841513      -1.177427      -0.003167
Br      -1.841460      -1.177474       0.003176
