             37

Pt       0.088003      -1.679525       0.105574
H        1.822214      -3.589816       0.757111
H        1.622897      -3.611335      -0.880337
H        2.527559      -2.380728      -0.174570
H       -1.085216      -3.958097       0.832363
H       -2.211106      -2.832751       0.407650
H       -1.415725      -3.685982      -0.757075
N       -1.299324      -3.224433       0.150421
N        1.690978      -2.995637      -0.065887
O       -1.509906      -0.407830       0.373449
O        1.293421      -0.004063       0.114773
C       -2.051252       0.220320      -0.629745
C        2.569647       0.088182      -0.049634
O       -1.728222       0.102557      -1.810148
O        3.352741      -0.854505      -0.245242
C       -3.174856       1.153832      -0.231058
C       -3.550532       1.333604       1.110165
C       -3.857961       1.859888      -1.234112
C       -4.591921       2.205222       1.440839
H       -3.017347       0.784274       1.887342
C       -4.899153       2.730601      -0.904585
H       -3.554688       1.711290      -2.272150
C       -5.268157       2.905127       0.434680
H       -4.877707       2.340010       2.487350
H       -5.425303       3.275571      -1.692744
H       -6.082562       3.586683       0.694167
C        3.105103       1.499633       0.013534
C        2.257803       2.597012       0.237851
C        4.481797       1.717967      -0.156655
C        2.780584       3.891766       0.289585
H        1.189336       2.422265       0.370753
C        5.003979       3.012357      -0.105501
H        5.130557       0.857417      -0.329009
C        4.153859       4.102073       0.117547
H        2.114928       4.740935       0.464467
H        6.076753       3.173404      -0.239664
H        4.561716       5.115500       0.157733
