             17

Pt       0.284984       0.004160       0.000010
Cl       0.173060      -2.404941      -0.000146
Cl       2.669506      -0.158147       0.000135
Cl       0.517446       2.391005      -0.000211
C       -2.386840      -0.617304      -1.215074
H       -1.996608      -1.640438      -1.229176
H       -3.490939      -0.633024      -1.212212
H       -2.035450      -0.083142      -2.107423
C       -2.446488       1.457816       0.000083
H       -3.548524       1.401016       0.000584
H       -2.100732       1.998612       0.887341
H       -2.101523       1.998439      -0.887582
C       -2.386589      -0.617058       1.215300
H       -3.490683      -0.633155       1.212414
H       -1.995946      -1.640026       1.229750
H       -2.035398      -0.082434       2.107452
N       -1.890522       0.082056      -0.000007
