             29

Pt       0.032028       0.101263      -0.015750
P       -1.672587      -1.485834      -0.006496
P        1.838064      -1.349806       0.010918
C       -2.828456      -1.258293      -1.411319
H       -3.651218      -1.985885      -1.335418
H       -3.222331      -0.234582      -1.397390
H       -2.280254      -1.422416      -2.350700
C       -1.336433      -3.290478      -0.102440
H       -0.661431      -3.625932       0.694820
H       -2.296518      -3.816720       0.010906
H       -0.913925      -3.552403      -1.081267
C       -2.677304      -1.348575       1.520544
H       -3.050829      -0.320582       1.612772
H       -3.518431      -2.057488       1.480563
H       -2.042492      -1.580893       2.388278
C        1.926350      -2.371793       1.533476
H        1.025707      -2.983943       1.663085
H        2.807540      -3.030253       1.490917
H        2.017341      -1.697585       2.397564
C        1.919118      -2.511580      -1.407267
H        2.829907      -3.124658      -1.328382
H        1.045970      -3.172177      -1.438971
H        1.953782      -1.925779      -2.337435
C        3.507453      -0.594102      -0.035463
H        3.649360       0.064628       0.830186
H        4.249544      -1.407375      -0.016211
H        3.627735       0.000027      -0.950285
Br      -1.903478       1.838855       0.020932
Br       1.628787       2.125688      -0.013962
