             21

Pt      -0.014856       0.797262      -0.008503
Cl       1.515602       2.674336       0.199958
Cl      -1.928487       2.310417      -0.164578
Te      -1.988667      -0.898083      -0.349674
Te       2.203828      -0.578922       0.126176
C       -2.978636      -0.621530       1.559293
H       -3.867206      -1.265441       1.579721
H       -2.273956      -0.883228       2.357869
H       -3.247812       0.439881       1.601369
C       -1.457493      -2.954875       0.099771
H       -0.980664      -3.011657       1.084454
H       -2.398939      -3.520534       0.092748
H       -0.793008      -3.330321      -0.688383
C        1.864294      -2.353197       1.331181
H        1.277245      -3.085667       0.768168
H        2.851705      -2.760553       1.584343
H        1.334723      -2.036462       2.238461
C        2.272735      -1.625254      -1.774147
H        3.121747      -2.320468      -1.740625
H        1.329715      -2.156811      -1.943759
H        2.430458      -0.862566      -2.547314
