             29

Pt      -0.000010       0.828253      -0.000028
Cl      -1.778770       2.516228      -0.017613
Cl       1.778774       2.516165       0.017573
Sb       2.003974      -0.781500      -0.002194
Sb      -2.003971      -0.781513       0.002195
C        3.307440      -0.424753      -1.679648
H        3.512851       0.652724      -1.709974
H        4.235571      -0.998182      -1.548908
H        2.793280      -0.736445      -2.599203
C        3.280266      -0.477563       1.706195
H        2.752555      -0.818343       2.607541
H        4.210946      -1.045998       1.571732
H        3.484786       0.598467       1.773916
C        1.808192      -2.932188      -0.041158
H        2.821303      -3.358609      -0.034017
H        1.254297      -3.269213       0.844724
H        1.280526      -3.237073      -0.954557
C       -3.280544      -0.477745      -1.706011
H       -2.753078      -0.818824      -2.607390
H       -4.211269      -1.046021      -1.571193
H       -3.484953       0.598292      -1.773953
C       -1.808060      -2.932187       0.041118
H       -2.821133      -3.358701       0.034032
H       -1.254215      -3.269126      -0.844827
H       -1.280303      -3.237071       0.954465
C       -3.307231      -0.424710       1.679804
H       -3.512573       0.652780       1.710128
H       -4.235410      -0.998091       1.549197
H       -2.792981      -0.736408       2.599309
