             21

Pt       0.835897       0.015654      -0.126437
Cl       0.668070      -2.353482      -0.462467
Cl       3.009186      -0.148608       0.857224
Cl       0.814843       2.405798       0.033399
N       -1.055987       0.147590      -0.998889
H       -1.003026       0.866518      -1.726402
H       -1.215732      -0.745468      -1.478383
C       -2.200040       0.449750      -0.100663
C       -3.550267       0.550181      -0.832334
C       -2.413480      -0.622047       0.998550
H       -1.962734       1.420038       0.359186
C       -4.563887       0.351892       0.300456
H       -3.637016      -0.274124      -1.563757
H       -3.670802       1.497872      -1.380527
C       -3.950298      -0.792357       1.131727
H       -1.940692      -0.303351       1.939515
H       -1.922633      -1.563309       0.709877
H       -4.626777       1.273269       0.904988
H       -5.579484       0.129550      -0.061745
H       -4.288694      -0.780775       2.178812
H       -4.258272      -1.761867       0.707657
