             27

Pt      -0.000669      -0.375090      -0.000006
Cl      -1.712421      -2.045216      -0.063072
Cl       1.704763      -2.051498       0.063083
N       -1.440527       1.204193       0.029484
N        1.444941       1.199001      -0.029505
C        0.673317       2.440724      -0.353067
C       -0.664438       2.443061       0.353288
H       -0.527216       2.468103       1.442281
H       -1.246659       3.336947       0.073746
H        1.258715       3.332445      -0.073286
H        0.536287       2.466571      -1.442083
C       -2.480548       0.997513       1.072035
H       -3.167218       1.860385       1.087394
H       -3.031821       0.078307       0.847697
H       -1.997357       0.894434       2.051657
C       -2.101198       1.309347      -1.299277
H       -2.597429       0.356165      -1.515880
H       -2.844239       2.124576      -1.285761
H       -1.357448       1.506470      -2.080496
C        2.106142       1.301787       1.299224
H        2.599697       0.347105       1.515332
H        2.851514       2.114887       1.285857
H        1.363125       1.500652       2.080705
C        2.484186       0.988789      -1.072137
H        3.174182       1.849016      -1.087020
H        3.031891       0.067353      -0.848273
H        2.000674       0.888102      -2.051847
