             31

Pt       0.000045       0.002228      -0.003068
Cl       0.002129      -2.310842       0.602349
Cl      -0.003063       2.314016      -0.614210
C       -2.744012       0.952829       0.657341
C       -2.741289      -0.956808      -0.660080
C       -4.131797       0.972819       0.686976
H       -2.148274       1.717670       1.155059
C       -4.131997      -0.985807      -0.679966
C       -4.868983      -0.010532       0.006316
C        2.744397      -0.953872      -0.655204
C        2.741522       0.963191       0.651006
C        4.132729      -0.978663      -0.677132
H        2.149036      -1.718902      -1.153023
C        4.131679       0.987631       0.678169
C        4.869280       0.003693       0.004541
N       -2.055778      -0.001369      -0.003528
N        2.055968       0.004604      -0.001466
H       -4.635780       1.764633       1.245361
H        4.637013      -1.774238      -1.229823
H       -4.635075      -1.781494      -1.233167
H        4.634427       1.785749       1.228213
H       -2.145403      -1.718387      -1.162722
H        2.145410       1.730140       1.145131
C       -6.372382      -0.006136       0.017951
H       -6.785799      -0.872918      -0.515823
H       -6.754841      -0.018360       1.051289
H       -6.761190       0.909346      -0.457647
C        6.372444      -0.016563       0.022126
H        6.778736      -0.221365      -0.980316
H        6.787321       0.934868       0.383213
H        6.735917      -0.817826       0.687872
