             37

Pt       0.000006      -1.129266      -0.000004
Cl      -1.695440      -2.783906       0.142031
Cl       1.695465      -2.783893      -0.142035
C        1.352048       1.299008      -1.087906
C        2.559360       0.279961       0.621749
C        2.321669       2.290295      -1.259386
C        3.583619       1.227970       0.534109
H        2.611657      -0.551734       1.324020
C        3.444876       2.240006      -0.423609
C       -1.352074       1.298954       1.087945
C       -2.559338       0.279961      -0.621778
C       -2.321707       2.290208       1.259445
C       -3.583623       1.227961      -0.534123
H       -2.611620      -0.551690      -1.324104
C       -3.444907       2.239944       0.423637
N        1.469172       0.322402      -0.167340
N       -1.469179       0.322374       0.167327
H        4.226560       2.999304      -0.523813
H        0.454189       1.278104      -1.707292
H       -4.226585       2.999244       0.523880
H       -0.454218       1.278016       1.707331
C        2.161469       3.358540      -2.309327
H        2.229605       4.363551      -1.863281
H        2.958144       3.284834      -3.067318
H        1.194528       3.277158      -2.825621
C        4.788878       1.148177       1.434048
H        5.707542       0.997628       0.844113
H        4.918229       2.081790       2.004598
H        4.705092       0.317652       2.148812
C       -2.161556       3.358439       2.309408
H       -2.229600       4.363454       1.863355
H       -2.958308       3.284768       3.067320
H       -1.194668       3.277012       2.825795
C       -4.788833       1.148189      -1.434127
H       -5.707541       0.997699      -0.844245
H       -4.918116       2.081789      -2.004715
H       -4.705037       0.317640      -2.148861
