             20

Pt      -0.158526      -0.025441       0.003832
S        2.191163       0.131278      -0.029317
O        2.632703       1.538659      -0.328448
C        2.963070      -0.972243      -1.229423
H        4.040591      -0.758093      -1.215534
H        2.760588      -2.016771      -0.958581
H        2.523316      -0.722546      -2.203269
C        2.940229      -0.371626       1.533734
H        4.023151      -0.208205       1.442455
H        2.505227       0.283131       2.299352
H        2.704536      -1.424561       1.737783
N       -0.304366      -2.127027       0.032460
H        0.097918      -2.578309      -0.794508
H        0.116900      -2.566931       0.856135
H       -1.300356      -2.371737       0.044857
N       -0.135968       2.059588      -0.055059
H       -0.448912       2.471431       0.829046
H        0.828704       2.378809      -0.237439
H       -0.747920       2.421313      -0.791825
Br      -2.662754       0.034355       0.003475
