             37

Pt       0.005516      -0.275169      -0.426996
N       -1.459683       1.113379      -1.146514
N        1.582593       0.986207      -1.147904
H       -0.995395       1.872815      -1.654733
H       -1.969847       0.592199      -1.866398
H        1.190240       1.719960      -1.746581
H        2.105136       0.380494      -1.788215
I        1.872074      -2.057613       0.356883
I       -1.992647      -1.946432       0.276042
C       -2.448505       1.710144      -0.209320
C       -1.847852       2.607583       0.872954
C       -3.484576       2.617361      -0.901295
H       -2.958786       0.861864       0.269866
C       -3.087278       3.312778       1.445505
H       -1.167309       3.342108       0.407647
H       -1.272011       2.045386       1.622942
C       -4.035736       3.523223       0.231129
H       -4.267167       2.037961      -1.414688
H       -2.976123       3.226835      -1.668127
H       -3.567693       2.658625       2.191128
H       -2.836364       4.252634       1.959279
H       -5.072209       3.259677       0.490049
H       -4.049787       4.575725      -0.089931
C        2.545073       1.612964      -0.203956
C        3.663444       2.410659      -0.892136
C        1.916621       2.635219       0.747713
H        2.986760       0.787643       0.374553
C        4.280652       3.214170       0.266730
H        3.216659       3.089429      -1.640755
H        4.390178       1.770247      -1.416049
C        3.115581       3.461278       1.272023
H        1.328960       2.159563       1.546031
H        1.228950       3.280388       0.174758
H        5.075979       2.622294       0.746603
H        4.746251       4.147820      -0.082300
H        3.403254       3.136769       2.283632
H        2.855535       4.527742       1.346794
