             23

Pt       0.001211      -0.443336      -0.017750
S       -1.717295       1.154066       0.018727
S        1.864528       0.973898      -0.140210
O        2.680565       0.787202      -1.378307
O       -1.377153       2.612630      -0.017643
C       -2.714630       0.850899       1.494407
H       -3.571786       1.536671       1.455175
H       -3.012405      -0.204737       1.504581
H       -2.060941       1.085031       2.344548
C       -2.860122       0.819962      -1.338907
H       -3.710486       1.504923      -1.218394
H       -2.300714       1.043986      -2.256316
H       -3.153392      -0.235907      -1.299768
C        1.511567       2.732829       0.022431
H        0.879459       3.008093      -0.828081
H        0.974179       2.919042       0.959229
H        2.486629       3.237321      -0.013722
C        2.903579       0.681472       1.308851
H        3.166548      -0.382317       1.278202
H        3.788396       1.324088       1.203844
H        2.325717       0.918219       2.212181
Cl       1.644143      -2.196561      -0.005999
Cl      -1.745968      -2.093514       0.019742
