             25

Pt      -0.000007       0.000063       0.001168
C        2.740893      -0.000398      -1.162400
C        2.741725       0.000116       1.163425
C        4.132363      -0.000348      -1.200883
H        2.144301      -0.000682      -2.075414
C        4.133208       0.000144       1.200949
H        2.145710       0.000281       2.076824
C        4.845200      -0.000070      -0.000226
H        4.640625      -0.000532      -2.166335
H        4.642161       0.000388       2.166035
H        5.937375      -0.000032      -0.000609
C       -2.741760      -0.000390       1.163416
C       -2.740925       0.000418      -1.162390
C       -4.133245      -0.000712       1.200938
H       -2.145739      -0.000472       2.076806
C       -4.132395       0.000153      -1.200875
H       -2.144322       0.000829      -2.075391
C       -4.845234      -0.000449      -0.000229
H       -4.642204      -0.001160       2.166014
H       -4.640662       0.000397      -2.166318
H       -5.937409      -0.000680      -0.000613
N       -2.060290       0.000150       0.000752
N        2.060257      -0.000180       0.000748
I        0.000071      -2.726111      -0.001089
I       -0.000034       2.726227      -0.001042
