             31

Pt       0.000014      -0.110674      -0.000016
C        2.038663       1.946875      -1.052035
C        2.029888       1.672619       1.271086
C        3.061505       2.899925      -0.929954
C        3.040664       2.608862       1.448984
H        1.608999       1.133824       2.119992
C        3.565522       3.242456       0.321401
C       -2.028881       1.673732      -1.271027
C       -2.038073       1.947179       1.052220
C       -3.039589       2.610087      -1.448757
H       -1.607876       1.135157      -2.120008
C       -3.060873       2.900273       0.930297
C       -3.564638       3.243261      -0.321040
I        1.938750      -1.972016       0.067672
I       -1.939452      -1.971225      -0.067814
N       -1.527857       1.359211      -0.057836
N        1.528598       1.358574       0.057883
H        4.362942       3.983201       0.414180
H       -4.362019       3.984063      -0.413711
H        3.407911       2.822167       2.453882
H       -3.406670       2.823818      -2.453627
H        3.458551       3.361340      -1.835560
H       -3.458038       3.361408       1.835992
C       -1.512740       1.561522       2.403530
H       -1.485860       0.467663       2.513827
H       -0.486535       1.932451       2.546527
H       -2.140479       1.989772       3.196289
C        1.512990       1.561963      -2.403464
H        1.485472       0.468223      -2.514446
H        0.487040       1.933850      -2.546188
H        2.140839       1.990350      -3.196079
