             31

Pt       0.000136      -0.315268       0.000344
C        1.845230       1.738317      -1.186931
C        2.061802       1.598384       1.115401
C        2.814747       2.730373      -1.255637
C        3.038950       2.589957       1.118400
H        1.743426       1.113748       2.039613
C        3.443763       3.185501      -0.084581
C       -2.057614       1.604396      -1.113334
C       -1.833218       1.747707       1.188039
C       -3.028576       2.599889      -1.116183
H       -1.741163       1.117661      -2.037061
C       -2.798270       2.746200       1.256969
C       -3.429387       3.199243       0.088174
I        1.943302      -2.170418       0.063978
I       -1.949810      -2.163210      -0.064599
N       -1.466184       1.184849       0.021257
N        1.471335       1.180047      -0.018372
H        3.486383       2.888042       2.068723
H       -3.473634       2.901511      -2.066748
H        3.081082       3.142799      -2.231281
H       -3.055838       3.166287       2.231468
H       -1.337964       1.375298       2.086186
H        1.352209       1.363374      -2.085205
C        4.497536       4.256476      -0.132301
H        5.316010       3.967005      -0.810805
H        4.076318       5.197924      -0.521819
H        4.922897       4.454013       0.861100
C       -4.502584       4.250804       0.127830
H       -5.494323       3.774535       0.216742
H       -4.380765       4.919753       0.991886
H       -4.510633       4.853542      -0.791987
