             23

Pt      -0.000014      -0.463033       0.000039
H        1.414721      -2.571847       0.764811
H        1.446650      -2.494940      -0.882281
H        2.366205      -1.399567       0.008667
H       -1.446809      -2.494886       0.882066
H       -2.366292      -1.399411      -0.008894
H       -1.414771      -2.571701      -0.765040
N       -1.464637      -1.928693       0.029495
N        1.464531      -1.928784      -0.029686
O       -1.362673       1.098662       0.025487
O        1.362744       1.098649      -0.025228
C       -2.652717       1.047222      -0.003064
C        2.652787       1.047175       0.003064
O       -3.344628       0.019355      -0.039876
O        3.344702       0.019312       0.039735
C       -3.313586       2.417655       0.010993
H       -2.985058       2.999195      -0.864501
H       -4.406432       2.318444      -0.000683
H       -3.000507       2.975152       0.907347
C        3.313644       2.417611      -0.011190
H        3.000623       2.974930      -0.907678
H        2.985055       2.999321       0.864166
H        4.406489       2.318402       0.000558
