             31

Pt      -0.000010       0.017970       0.000038
Cl       0.000236      -2.371820      -0.000290
N        1.838481       0.002061       0.995138
H        1.760479       0.605418       1.820249
H        1.976558      -0.950155       1.350347
C        3.015968       0.412832       0.202246
C        4.427857       0.218412       0.807888
C        3.425754      -0.473979      -0.990546
H        2.845083       1.453503      -0.105793
C        4.907728      -0.229780      -0.598149
H        4.443140      -0.616177       1.527426
H        4.904163       1.095659       1.270733
H        3.123835      -1.520585      -0.829549
H        3.086312      -0.159161      -1.988510
H        5.587124      -1.093048      -0.643424
H        5.353882       0.600816      -1.165619
Cl      -0.000074       2.407234       0.000516
N       -1.838428       0.003356      -0.995003
H       -1.976867      -0.948182      -1.351875
H       -1.760237       0.607977      -1.819180
C       -3.016020       0.413285      -0.201651
C       -4.427810       0.219617      -0.807838
C       -3.425916      -0.475168       0.989872
H       -2.844954       1.453548       0.107642
C       -4.907873      -0.231188       0.597310
H       -4.442877      -0.613580      -1.528986
H       -4.904211       1.097661      -1.269065
H       -3.123287      -1.521418       0.827926
H       -3.087053      -0.161281       1.988336
H       -5.586724      -1.094978       0.640838
H       -5.354848       0.598150       1.165965
